nsp13-x0420-oneChain - minimized
                    3D
 Schrodinger Suite 2023-1.
  0  0  0     0  0            999 V3000
M  V30 BEGIN CTAB
M  V30 COUNTS 9119 9221 0 0 0
M  V30 BEGIN ATOM
M  V30 1 N  2.6861 3.1334 -48.5947 0 CHG=1
M  V30 2 C  3.8491 3.2507 -47.6405 0 CFG=2
M  V30 3 C  3.6688 4.5694 -46.8203 0
M  V30 4 O  3.0243 5.5290 -47.2563 0
M  V30 5 C  5.2414 3.1766 -48.3707 0
M  V30 6 C  6.4598 3.7189 -47.5884 0
M  V30 7 C  5.5787 1.7431 -48.8305 0
M  V30 8 N  4.2297 4.5710 -45.6001 0
M  V30 9 C  4.1294 5.6784 -44.6512 0
M  V30 10 C  4.9867 5.3624 -43.4186 0
M  V30 11 O  5.8924 4.5326 -43.4885 0
M  V30 12 N  4.7156 6.0590 -42.3011 0
M  V30 13 C  5.4682 5.9642 -41.0449 0 CFG=2
M  V30 14 C  4.5724 5.4840 -39.8972 0
M  V30 15 O  3.4526 5.9777 -39.7642 0
M  V30 16 C  6.0481 7.3474 -40.7128 0
M  V30 17 N  5.1095 4.5613 -39.0765 0
M  V30 18 C  4.4644 3.9412 -37.9120 0 CFG=2
M  V30 19 C  3.9213 4.9719 -36.9012 0
M  V30 20 O  4.6344 5.9093 -36.5484 0
M  V30 21 C  5.4196 2.9370 -37.2280 0
M  V30 22 S  4.7510 1.9435 -35.8318 0 CHG=-1
M  V30 23 N  2.6844 4.7595 -36.4221 0
M  V30 24 C  2.0495 5.6252 -35.4204 0 CFG=2
M  V30 25 C  2.5155 5.3411 -33.9701 0
M  V30 26 O  2.0788 6.0517 -33.0646 0
M  V30 27 C  0.4943 5.5770 -35.4940 0
M  V30 28 C  -0.0125 5.8683 -36.9173 0
M  V30 29 C  -0.1655 4.3039 -34.9349 0
M  V30 30 N  3.3938 4.3393 -33.7736 0
M  V30 31 C  3.9762 3.9803 -32.4776 0 CFG=2
M  V30 32 C  5.5067 4.1300 -32.4384 0
M  V30 33 O  6.0373 4.2742 -31.3371 0
M  V30 34 C  3.5903 2.5247 -32.1185 0
M  V30 35 C  2.0948 2.2908 -31.8162 0
M  V30 36 C  1.7808 0.7831 -31.7017 0
M  V30 37 C  1.6256 3.0826 -30.5761 0
M  V30 38 N  6.1902 4.0782 -33.5964 0
M  V30 39 C  7.6568 4.0555 -33.6781 0 CFG=2
M  V30 40 C  8.2453 5.0845 -34.6520 0
M  V30 41 O  9.4544 5.3039 -34.5815 0
M  V30 42 C  8.1715 2.6624 -34.0975 0
M  V30 43 S  8.1343 1.5497 -32.6850 0
M  V30 44 N  7.4441 5.6129 -35.5974 0
M  V30 45 C  7.8776 6.3265 -36.8170 0 CFG=2
M  V30 46 C  8.6746 5.4711 -37.8216 0
M  V30 47 O  8.9236 5.9623 -38.9223 0
M  V30 48 C  8.6173 7.6597 -36.4909 0
M  V30 49 C  7.7438 8.9114 -36.6082 0
M  V30 50 N  8.0532 9.9367 -35.8136 0
M  V30 51 O  6.8417 8.9850 -37.4401 0
M  V30 52 N  9.0208 4.2221 -37.4630 0
M  V30 53 C  9.6929 3.2284 -38.2946 0 CFG=2
M  V30 54 C  8.9021 2.9872 -39.5862 0
M  V30 55 O  7.7779 2.4926 -39.5185 0
M  V30 56 C  9.8474 1.9329 -37.4745 0
M  V30 57 O  10.9481 2.0308 -36.5962 0
M  V30 58 N  9.4865 3.4111 -40.7189 0
M  V30 59 C  8.8690 3.4293 -42.0465 0 CFG=2
M  V30 60 C  8.3577 2.0358 -42.4537 0
M  V30 61 O  8.9989 1.0434 -42.1127 0
M  V30 62 C  9.9065 4.0024 -43.0313 0
M  V30 63 C  9.3454 4.3663 -44.4201 0
M  V30 64 C  10.3808 5.0448 -45.3241 0
M  V30 65 N  10.0545 5.1834 -46.6095 0
M  V30 66 O  11.4514 5.4559 -44.8802 0
M  V30 67 N  7.1826 1.9740 -43.0985 0
M  V30 68 C  6.5277 0.7017 -43.4067 0 CFG=2
M  V30 69 C  5.5629 0.7815 -44.5844 0
M  V30 70 O  4.9055 1.8007 -44.7870 0
M  V30 71 C  5.7022 0.0772 -42.2421 0 CFG=1
M  V30 72 C  6.1445 -1.3812 -42.0092 0
M  V30 73 O  5.8174 0.8335 -41.0545 0
M  V30 74 N  5.4333 -0.3667 -45.2612 0
M  V30 75 C  4.3662 -0.6534 -46.2089 0 CFG=2
M  V30 76 C  3.0488 -1.0553 -45.5188 0
M  V30 77 O  2.0041 -0.9417 -46.1526 0
M  V30 78 C  4.8914 -1.7167 -47.1887 0
M  V30 79 O  3.9962 -1.9916 -48.2401 0
M  V30 80 N  3.1069 -1.4954 -44.2508 0
M  V30 81 C  1.9763 -2.0765 -43.5320 0 CFG=2
M  V30 82 C  1.0911 -1.0231 -42.8515 0
M  V30 83 O  1.6098 -0.1120 -42.2093 0
M  V30 84 C  2.4977 -3.0653 -42.4728 0
M  V30 85 C  3.4301 -4.1677 -42.9995 0
M  V30 86 C  4.0588 -4.9306 -41.8276 0
M  V30 87 C  2.7252 -5.1032 -43.9952 0
M  V30 88 N  -0.2272 -1.2386 -42.9582 0
M  V30 89 C  -1.2857 -0.6239 -42.1589 0 CFG=2
M  V30 90 C  -2.1620 -1.7519 -41.6019 0
M  V30 91 O  -2.3027 -2.7810 -42.2611 0
M  V30 92 C  -2.1815 0.2686 -43.0447 0
M  V30 93 C  -1.5128 1.5308 -43.6097 0
M  V30 94 C  -2.3377 2.2035 -44.7225 0
M  V30 95 N  -2.2950 1.4212 -45.9772 0
M  V30 96 C  -3.2882 1.1608 -46.8493 0
M  V30 97 N  -4.5325 1.6378 -46.6940 0
M  V30 98 N  -3.0227 0.3927 -47.9136 0 CHG=1
M  V30 99 N  -2.8085 -1.5214 -40.4485 0
M  V30 100 C  -3.8902 -2.3880 -39.9700 0 CFG=2
M  V30 101 C  -5.1557 -2.1305 -40.8104 0
M  V30 102 O  -5.5502 -0.9803 -40.9649 0
M  V30 103 C  -4.1707 -2.1855 -38.4694 0
M  V30 104 S  -5.4246 -3.3183 -37.7528 0 CHG=-1
M  V30 105 N  -5.7781 -3.1976 -41.3260 0
M  V30 106 C  -7.0092 -3.0990 -42.1073 0
M  V30 107 C  -8.2646 -3.1468 -41.2270 0
M  V30 108 O  -9.3292 -2.7491 -41.6983 0
M  V30 109 N  -8.1519 -3.6250 -39.9753 0
M  V30 110 C  -9.2660 -3.7674 -39.0356 0 CFG=2
M  V30 111 C  -9.4786 -2.5328 -38.1393 0
M  V30 112 O  -10.5913 -2.3485 -37.6471 0
M  V30 113 C  -9.0451 -5.0381 -38.2124 0
M  V30 114 N  -8.4505 -1.6789 -37.9912 0
M  V30 115 C  -8.5755 -0.3177 -37.4621 0 CFG=2
M  V30 116 C  -9.2999 0.5615 -38.4968 0
M  V30 117 O  -8.9472 0.5063 -39.6769 0
M  V30 118 C  -7.1975 0.3076 -37.2125 0
M  V30 119 S  -6.3531 -0.3910 -35.7739 0
M  V30 120 N  -10.2681 1.3772 -38.0448 0
M  V30 121 C  -11.0864 2.2139 -38.9341 0 CFG=2
M  V30 122 C  -10.3324 3.4130 -39.5559 0
M  V30 123 O  -10.7734 3.9178 -40.5874 0
M  V30 124 C  -12.3901 2.7167 -38.2485 0 CFG=2
M  V30 125 C  -12.2099 3.8138 -37.1709 0
M  V30 126 C  -13.2176 1.5298 -37.7143 0
M  V30 127 C  -13.5377 4.4484 -36.7419 0
M  V30 128 N  -9.2056 3.8206 -38.9471 0
M  V30 129 C  -8.3041 4.8539 -39.4667 0 CFG=2
M  V30 130 C  -7.1755 4.2887 -40.3309 0
M  V30 131 O  -6.5326 5.0658 -41.0359 0
M  V30 132 C  -7.7121 5.6458 -38.2837 0
M  V30 133 C  -8.7662 6.4400 -37.4953 0
M  V30 134 C  -9.7152 7.2895 -38.3637 0
M  V30 135 N  -8.9863 8.2433 -39.2189 0
M  V30 136 C  -9.3960 8.8412 -40.3483 0
M  V30 137 N  -10.5976 8.6049 -40.8940 0
M  V30 138 N  -8.5631 9.7043 -40.9391 0 CHG=1
M  V30 139 N  -6.9553 2.9670 -40.2597 0
M  V30 140 C  -5.9101 2.2286 -40.9612 0 CFG=2
M  V30 141 C  -4.4925 2.7995 -40.7314 0
M  V30 142 O  -3.8461 3.2016 -41.7016 0
M  V30 143 C  -6.2511 2.0704 -42.4601 0
M  V30 144 C  -7.5969 1.3859 -42.7465 0
M  V30 145 C  -7.9283 1.4563 -44.2416 0
M  V30 146 N  -9.0688 0.6047 -44.6100 0
M  V30 147 C  -9.5823 0.4522 -45.8458 0
M  V30 148 N  -9.1079 1.1267 -46.9061 0
M  V30 149 N  -10.5976 -0.4015 -46.0229 0 CHG=1
M  V30 150 N  -4.0551 2.8903 -39.4520 0
M  V30 151 C  -2.7638 3.4882 -39.1051 0 CFG=2
M  V30 152 C  -1.6152 2.6282 -39.6356 0
M  V30 153 O  -1.6704 1.4027 -39.5113 0
M  V30 154 C  -2.7790 3.5071 -37.5685 0
M  V30 155 C  -3.6102 2.2991 -37.1803 0
M  V30 156 C  -4.6552 2.2434 -38.2857 0
M  V30 157 N  -0.5937 3.2917 -40.1952 0
M  V30 158 C  0.6831 2.6560 -40.4990 0 CFG=2
M  V30 159 C  1.3076 2.0766 -39.2188 0
M  V30 160 O  1.2773 2.7315 -38.1763 0
M  V30 161 C  1.6283 3.6543 -41.1871 0
M  V30 162 C  1.2461 4.0523 -42.6020 0
M  V30 163 C  0.5802 5.2722 -42.8477 0
M  V30 164 C  1.4498 3.1549 -43.6711 0
M  V30 165 C  0.1814 5.5981 -44.1376 0
M  V30 166 C  1.0222 3.4898 -44.9488 0
M  V30 167 C  0.4013 4.7104 -45.1833 0
M  V30 168 N  1.8078 0.8433 -39.3195 0
M  V30 169 C  2.4137 0.1058 -38.2189 0 CFG=2
M  V30 170 C  3.6622 -0.5683 -38.7779 0
M  V30 171 O  3.5534 -1.2366 -39.8017 0
M  V30 172 C  1.4172 -0.9526 -37.6833 0
M  V30 173 C  0.2799 -0.3963 -36.8004 0
M  V30 174 C  -0.7789 -1.4774 -36.5014 0
M  V30 175 C  0.8225 0.2421 -35.5075 0
M  V30 176 N  4.8107 -0.4235 -38.0935 0
M  V30 177 C  6.0667 -1.1046 -38.4383 0 CFG=2
M  V30 178 C  5.9392 -2.6299 -38.3444 0
M  V30 179 O  5.0123 -3.1059 -37.6955 0
M  V30 180 C  7.2812 -0.5175 -37.6965 0
M  V30 181 S  7.4168 -0.9997 -35.9557 0
M  V30 182 N  6.8526 -3.3733 -38.9961 0
M  V30 183 C  6.8603 -4.8444 -39.0085 0 CFG=2
M  V30 184 C  6.7428 -5.4375 -37.5916 0
M  V30 185 O  5.9145 -6.3209 -37.3819 0
M  V30 186 C  8.0957 -5.4214 -39.7278 0
M  V30 187 S  8.0904 -4.9711 -41.4879 0
M  V30 188 N  7.4845 -4.8436 -36.6414 0
M  V30 189 C  7.4415 -5.1528 -35.2177 0 CFG=2
M  V30 190 C  6.1018 -4.7990 -34.5297 0
M  V30 191 O  5.4795 -5.6955 -33.9646 0
M  V30 192 N  5.6721 -3.5243 -34.5825 0
M  V30 193 C  4.4496 -3.0341 -33.9201 0 CFG=2
M  V30 194 C  3.1445 -3.6033 -34.5053 0
M  V30 195 O  2.1794 -3.7536 -33.7569 0
M  V30 196 C  4.3688 -1.4963 -33.9032 0
M  V30 197 S  5.5245 -0.8432 -32.6711 0
M  V30 198 N  3.1444 -3.9278 -35.8091 0
M  V30 199 C  2.0475 -4.5770 -36.5247 0 CFG=2
M  V30 200 C  1.8079 -6.0031 -36.0035 0
M  V30 201 O  0.6505 -6.3679 -35.8140 0
M  V30 202 C  2.2688 -4.5589 -38.0543 0
M  V30 203 S  0.8037 -5.1154 -38.9730 0
M  V30 204 N  2.8940 -6.7514 -35.7225 0
M  V30 205 C  2.8360 -8.0712 -35.0893 0 CFG=2
M  V30 206 C  2.2286 -8.0024 -33.6875 0
M  V30 207 O  1.2398 -8.6879 -33.4388 0
M  V30 208 C  4.2222 -8.7391 -35.0643 0
M  V30 209 C  4.2392 -10.1570 -34.5096 0
M  V30 210 C  4.1606 -11.2625 -35.3816 0
M  V30 211 C  4.3436 -10.3761 -33.1188 0
M  V30 212 C  4.2057 -12.5721 -34.8655 0
M  V30 213 C  4.3591 -11.6837 -32.6007 0
M  V30 214 C  4.2994 -12.7836 -33.4766 0
M  V30 215 O  4.3198 -14.0539 -32.9808 0
M  V30 216 N  2.8245 -7.1656 -32.8192 0
M  V30 217 C  2.4199 -6.9832 -31.4215 0 CFG=2
M  V30 218 C  0.9575 -6.5264 -31.2739 0
M  V30 219 O  0.3207 -6.9143 -30.2976 0
M  V30 220 C  3.3605 -6.0587 -30.6029 0
M  V30 221 C  4.8284 -6.5059 -30.4249 0
M  V30 222 O  5.3314 -7.3490 -31.2010 0
M  V30 223 O  5.4783 -5.9133 -29.5365 0 CHG=-1
M  V30 224 N  0.4379 -5.7770 -32.2626 0
M  V30 225 C  -0.9761 -5.4387 -32.3804 0 CFG=2
M  V30 226 C  -1.8440 -6.6585 -32.7383 0
M  V30 227 O  -2.7485 -6.9753 -31.9659 0
M  V30 228 C  -1.1655 -4.2788 -33.3785 0
M  V30 229 C  -2.6006 -3.8617 -33.5989 0
M  V30 230 C  -3.3410 -3.6940 -34.7478 0
M  V30 231 N  -3.4636 -3.5674 -32.5563 0
M  V30 232 C  -4.6382 -3.2331 -33.0929 0
M  V30 233 N  -4.6335 -3.2809 -34.4179 0
M  V30 234 N  -1.5769 -7.3067 -33.8900 0
M  V30 235 C  -2.4438 -8.3652 -34.4216 0 CFG=2
M  V30 236 C  -2.4942 -9.6508 -33.5727 0
M  V30 237 O  -3.5473 -10.2812 -33.5435 0
M  V30 238 C  -2.1440 -8.7602 -35.9000 0
M  V30 239 C  -2.3482 -7.5839 -36.8732 0
M  V30 240 C  -0.7910 -9.4611 -36.1257 0
M  V30 241 N  -1.4030 -9.9990 -32.8689 0
M  V30 242 C  -1.3376 -11.1866 -32.0081 0 CFG=2
M  V30 243 C  -2.0003 -11.0206 -30.6210 0
M  V30 244 O  -2.1534 -12.0270 -29.9291 0
M  V30 245 C  0.1225 -11.6738 -31.7926 0 CFG=2
M  V30 246 C  1.0432 -10.6640 -31.0567 0
M  V30 247 C  0.7378 -12.1633 -33.1148 0
M  V30 248 C  1.5780 -11.1710 -29.7135 0
M  V30 249 N  -2.3912 -9.7905 -30.2429 0
M  V30 250 C  -2.9884 -9.4770 -28.9386 0 CFG=2
M  V30 251 C  -4.3559 -8.7699 -29.0359 0
M  V30 252 O  -4.8887 -8.3700 -28.0008 0
M  V30 253 C  -1.9579 -8.7059 -28.0885 0
M  V30 254 O  -1.7787 -7.3832 -28.5447 0
M  V30 255 N  -4.9129 -8.6515 -30.2517 0
M  V30 256 C  -6.2458 -8.1048 -30.5148 0 CFG=2
M  V30 257 C  -6.9685 -8.9778 -31.5602 0
M  V30 258 O  -6.3455 -9.8204 -32.2092 0
M  V30 259 C  -6.1747 -6.6472 -31.0593 0 CFG=1
M  V30 260 C  -5.4548 -5.6649 -30.1277 0
M  V30 261 O  -5.5773 -6.5820 -32.3376 0
M  V30 262 N  -8.2811 -8.7326 -31.7156 0
M  V30 263 C  -9.1346 -9.3254 -32.7501 0 CFG=2
M  V30 264 C  -8.8513 -8.8113 -34.1786 0
M  V30 265 O  -9.4084 -9.3668 -35.1241 0
M  V30 266 C  -10.6092 -9.1139 -32.3458 0
M  V30 267 O  -11.0096 -7.7605 -32.4629 0
M  V30 268 N  -8.0176 -7.7660 -34.3122 0
M  V30 269 C  -7.5933 -7.1858 -35.5819 0 CFG=2
M  V30 270 C  -6.5405 -8.0846 -36.2351 0
M  V30 271 O  -5.4729 -8.2596 -35.6561 0
M  V30 272 C  -7.0341 -5.7731 -35.3303 0
M  V30 273 C  -8.0473 -4.7521 -34.8687 0
M  V30 274 C  -9.3680 -4.8547 -34.4841 0
M  V30 275 N  -7.7486 -3.4059 -34.7935 0
M  V30 276 C  -8.8530 -2.7731 -34.3922 0
M  V30 277 N  -9.8776 -3.5900 -34.1847 0
M  V30 278 N  -6.8745 -8.6602 -37.3995 0
M  V30 279 C  -6.0244 -9.6303 -38.0930 0 CFG=2
M  V30 280 C  -5.7715 -9.2569 -39.5622 0
M  V30 281 O  -4.8310 -9.7979 -40.1419 0
M  V30 282 C  -6.6743 -11.0246 -38.0423 0
M  V30 283 C  -7.0301 -11.5927 -36.6575 0
M  V30 284 C  -5.8537 -11.8106 -35.6939 0
M  V30 285 C  -6.3369 -12.4693 -34.3911 0
M  V30 286 N  -5.2329 -12.7346 -33.4550 0 CHG=1
M  V30 287 N  -6.5897 -8.3681 -40.1557 0
M  V30 288 C  -6.3590 -7.8750 -41.5133 0 CFG=2
M  V30 289 C  -5.2052 -6.8661 -41.5022 0
M  V30 290 O  -5.2118 -5.9438 -40.6872 0
M  V30 291 C  -7.6548 -7.2667 -42.1005 0
M  V30 292 C  -7.5419 -6.7592 -43.5642 0
M  V30 293 C  -7.1545 -7.8713 -44.5654 0
M  V30 294 C  -8.8141 -5.9984 -43.9931 0
M  V30 295 N  -4.2585 -7.0649 -42.4259 0
M  V30 296 C  -3.1459 -6.1584 -42.6703 0 CFG=2
M  V30 297 C  -3.1881 -5.7667 -44.1534 0
M  V30 298 O  -3.3673 -6.6270 -45.0148 0
M  V30 299 C  -1.7825 -6.8243 -42.3316 0
M  V30 300 C  -0.5498 -6.0033 -42.7663 0
M  V30 301 C  -1.6919 -7.1337 -40.8266 0
M  V30 302 N  -3.0315 -4.4639 -44.4094 0
M  V30 303 C  -2.9989 -3.8725 -45.7403 0 CFG=2
M  V30 304 C  -1.5617 -3.4650 -46.0630 0
M  V30 305 O  -0.8423 -3.0195 -45.1728 0
M  V30 306 C  -3.9266 -2.6399 -45.7844 0
M  V30 307 C  -5.3917 -2.9164 -45.3910 0
M  V30 308 C  -6.2044 -1.6142 -45.4017 0
M  V30 309 C  -6.0539 -3.9950 -46.2658 0
M  V30 310 N  -1.1866 -3.6020 -47.3389 0
M  V30 311 C  0.1346 -3.2564 -47.8520 0 CFG=2
M  V30 312 C  -0.0465 -2.5369 -49.2015 0
M  V30 313 O  -1.0066 -1.7758 -49.3457 0
M  V30 314 C  1.0178 -4.5299 -47.8273 0
M  V30 315 O  2.3663 -4.3073 -48.1741 0
M  V30 316 N  0.8363 -2.8016 -50.1792 0
M  V30 317 C  0.6292 -2.4532 -51.5924 0 CFG=2
M  V30 318 C  -0.5845 -3.2221 -52.1770 0
M  V30 319 O  -1.3084 -2.6838 -53.0134 0
M  V30 320 C  1.8929 -2.7758 -52.4443 0
M  V30 321 C  1.7453 -2.4419 -53.9442 0
M  V30 322 C  3.1462 -2.0716 -51.8903 0
M  V30 323 N  -0.8056 -4.4389 -51.6521 0
M  V30 324 C  -1.9987 -5.2754 -51.7816 0 CFG=2
M  V30 325 C  -2.4365 -5.6868 -50.3595 0
M  V30 326 O  -1.5919 -5.7758 -49.4673 0
M  V30 327 C  -1.6041 -6.5333 -52.5947 0
M  V30 328 C  -1.7226 -6.4399 -54.1190 0
M  V30 329 N  -1.7361 -5.2381 -54.6992 0
M  V30 330 O  -1.8001 -7.4735 -54.7780 0
M  V30 331 N  -3.7429 -5.9842 -50.1723 0
M  V30 332 C  -4.2473 -6.5721 -48.9180 0 CFG=2
M  V30 333 C  -3.7019 -7.9903 -48.6833 0
M  V30 334 O  -3.5603 -8.7524 -49.6413 0
M  V30 335 C  -5.7721 -6.5793 -49.1139 0
M  V30 336 C  -5.9665 -6.6915 -50.6165 0
M  V30 337 C  -4.8026 -5.8843 -51.1791 0
M  V30 338 N  -3.4043 -8.3145 -47.4154 0
M  V30 339 C  -3.0000 -9.6581 -47.0044 0 CFG=2
M  V30 340 C  -4.2574 -10.5131 -46.8328 0
M  V30 341 O  -4.8565 -10.5610 -45.7590 0
M  V30 342 C  -2.0903 -9.6004 -45.7611 0
M  V30 343 C  -0.7161 -8.9694 -45.9677 0
M  V30 344 C  -0.2740 -8.5124 -47.2322 0
M  V30 345 C  0.1552 -8.8639 -44.8657 0
M  V30 346 C  1.0058 -7.9584 -47.3847 0
M  V30 347 C  1.4470 -8.3324 -45.0232 0
M  V30 348 C  1.8723 -7.8764 -46.2869 0
M  V30 349 O  3.1174 -7.3568 -46.4659 0
M  V30 350 N  -4.6192 -11.1339 -47.9597 0
M  V30 351 C  -5.7429 -12.0275 -48.1699 0 CFG=2
M  V30 352 C  -5.2873 -13.0937 -49.1784 0
M  V30 353 O  -4.4557 -12.8045 -50.0418 0
M  V30 354 C  -6.9854 -11.2585 -48.7126 0
M  V30 355 C  -6.7621 -10.5631 -50.0720 0
M  V30 356 C  -8.2450 -12.1413 -48.7957 0
M  V30 357 N  -5.8343 -14.3100 -49.0454 0
M  V30 358 C  -5.5359 -15.4400 -49.9185 0 CFG=2
M  V30 359 C  -6.0173 -15.1747 -51.3598 0
M  V30 360 O  -7.2209 -15.0451 -51.5815 0
M  V30 361 C  -6.0944 -16.7481 -49.3284 0
M  V30 362 S  -5.6838 -18.1844 -50.3595 0
M  V30 363 N  -5.0559 -15.0970 -52.2965 0
M  V30 364 C  -5.2702 -14.8334 -53.7250 0 CFG=2
M  V30 365 C  -5.7920 -16.0517 -54.5090 0
M  V30 366 O  -6.1247 -15.8818 -55.6819 0
M  V30 367 C  -3.9564 -14.2917 -54.3491 0
M  V30 368 C  -3.6101 -12.8496 -53.9521 0
M  V30 369 N  -2.3496 -12.4564 -54.1372 0
M  V30 370 O  -4.4663 -12.0798 -53.5243 0
M  V30 371 N  -5.8955 -17.2360 -53.8769 0
M  V30 372 C  -6.5604 -18.4065 -54.4540 0 CFG=2
M  V30 373 C  -8.0752 -18.1329 -54.6105 0
M  V30 374 O  -8.6751 -17.6683 -53.6384 0
M  V30 375 C  -6.3431 -19.6059 -53.5297 0
M  V30 376 N  -8.6525 -18.3785 -55.8140 0
M  V30 377 C  -10.0757 -18.1113 -56.1183 0 CFG=2
M  V30 378 C  -11.0991 -18.6190 -55.0853 0
M  V30 379 O  -11.1224 -19.8119 -54.7816 0
M  V30 380 C  -10.2872 -18.7850 -57.4843 0
M  V30 381 C  -8.9329 -18.7011 -58.1561 0
M  V30 382 C  -7.9624 -18.8965 -57.0011 0
M  V30 383 N  -11.9186 -17.6865 -54.5725 0
M  V30 384 C  -13.0323 -17.9706 -53.6661 0
M  V30 385 C  -12.6052 -18.2314 -52.2111 0
M  V30 386 O  -13.4574 -18.6303 -51.4185 0
M  V30 387 N  -11.3239 -18.0251 -51.8529 0
M  V30 388 C  -10.8034 -18.2313 -50.5005 0 CFG=2
M  V30 389 C  -10.9512 -16.9445 -49.6681 0
M  V30 390 O  -10.5126 -15.8820 -50.1099 0
M  V30 391 C  -9.3465 -18.7251 -50.5378 0
M  V30 392 S  -8.7947 -19.2410 -48.8851 0
M  V30 393 N  -11.5574 -17.0813 -48.4777 0
M  V30 394 C  -11.9451 -15.9798 -47.5887 0 CFG=2
M  V30 395 C  -10.9577 -15.7503 -46.4210 0
M  V30 396 O  -11.2974 -14.9879 -45.5159 0
M  V30 397 C  -13.4039 -16.1459 -47.0744 0
M  V30 398 C  -13.7007 -17.4602 -46.3286 0
M  V30 399 O  -13.5576 -17.4588 -45.0859 0
M  V30 400 O  -13.9229 -18.4809 -47.0175 0 CHG=-1
M  V30 401 N  -9.7691 -16.3840 -46.4302 0
M  V30 402 C  -8.7696 -16.2142 -45.3686 0 CFG=2
M  V30 403 C  -8.0747 -14.8415 -45.4831 0
M  V30 404 O  -7.3084 -14.6201 -46.4207 0
M  V30 405 C  -7.6950 -17.3382 -45.3615 0
M  V30 406 C  -6.5916 -17.1253 -44.2968 0
M  V30 407 C  -8.3391 -18.7192 -45.1434 0
M  V30 408 N  -8.3789 -13.9668 -44.5129 0
M  V30 409 C  -7.8781 -12.5949 -44.3903 0 CFG=2
M  V30 410 C  -6.9733 -12.4130 -43.1487 0
M  V30 411 O  -6.3516 -11.3574 -43.0264 0
M  V30 412 C  -9.0704 -11.6074 -44.2380 0 CFG=1
M  V30 413 C  -10.0092 -11.5766 -45.4526 0
M  V30 414 O  -9.8357 -11.8721 -43.0733 0
M  V30 415 N  -6.9139 -13.4171 -42.2528 0
M  V30 416 C  -6.1043 -13.4089 -41.0321 0 CFG=2
M  V30 417 C  -4.6169 -13.5676 -41.3957 0
M  V30 418 O  -4.2356 -14.6295 -41.8825 0
M  V30 419 C  -6.6243 -14.4810 -40.0286 0
M  V30 420 C  -5.9649 -14.6040 -38.6358 0
M  V30 421 O  -4.8830 -14.0260 -38.3963 0
M  V30 422 O  -6.5364 -15.3561 -37.8175 0 CHG=-1
M  V30 423 N  -3.8174 -12.5172 -41.1340 0
M  V30 424 C  -2.3790 -12.4380 -41.4206 0 CFG=2
M  V30 425 C  -1.5174 -13.5334 -40.7511 0
M  V30 426 O  -0.5047 -13.9292 -41.3285 0
M  V30 427 C  -1.8133 -11.0376 -41.0414 0
M  V30 428 C  -1.8162 -10.7466 -39.5261 0
M  V30 429 C  -0.4040 -10.7880 -41.6104 0
M  V30 430 N  -1.9501 -14.0315 -39.5792 0
M  V30 431 C  -1.3000 -15.1268 -38.8546 0 CFG=2
M  V30 432 C  -1.5223 -16.5128 -39.5090 0
M  V30 433 O  -0.7843 -17.4429 -39.1866 0
M  V30 434 C  -1.7300 -15.1743 -37.3561 0 CFG=1
M  V30 435 C  -1.7380 -13.8047 -36.6515 0
M  V30 436 O  -2.9667 -15.8235 -37.1265 0
M  V30 437 N  -2.4960 -16.6112 -40.4322 0
M  V30 438 C  -2.8392 -17.8149 -41.1935 0 CFG=2
M  V30 439 C  -2.3998 -17.7128 -42.6712 0
M  V30 440 O  -2.7811 -18.5866 -43.4503 0
M  V30 441 C  -4.3700 -18.0475 -41.0983 0
M  V30 442 C  -4.9535 -18.0922 -39.6692 0
M  V30 443 C  -4.2968 -19.1188 -38.7430 0
M  V30 444 N  -4.0275 -18.7251 -37.4970 0
M  V30 445 O  -4.0545 -20.2574 -39.1362 0
M  V30 446 N  -1.6317 -16.6674 -43.0374 0
M  V30 447 C  -1.2169 -16.3645 -44.4112 0 CFG=2
M  V30 448 C  0.3134 -16.3953 -44.5725 0
M  V30 449 O  1.0581 -16.2111 -43.6093 0
M  V30 450 C  -1.7692 -14.9823 -44.8153 0
M  V30 451 C  -3.2946 -14.9386 -45.0302 0
M  V30 452 C  -3.7782 -13.4837 -45.0878 0
M  V30 453 C  -3.7269 -15.7061 -46.2904 0
M  V30 454 N  0.7255 -16.6500 -45.8239 0
M  V30 455 C  2.0922 -16.8741 -46.2964 0 CFG=2
M  V30 456 C  2.2717 -16.1421 -47.6373 0
M  V30 457 O  1.2845 -15.9581 -48.3477 0
M  V30 458 C  2.3223 -18.3935 -46.5242 0
M  V30 459 C  2.0145 -19.3235 -45.3589 0
M  V30 460 C  0.6769 -19.6478 -45.0436 0
M  V30 461 C  3.0585 -19.8966 -44.6033 0
M  V30 462 C  0.3812 -20.4804 -43.9512 0
M  V30 463 C  2.7650 -20.7540 -43.5243 0
M  V30 464 C  1.4255 -21.0390 -43.1925 0
M  V30 465 O  1.1379 -21.8599 -42.1418 0
M  V30 466 N  3.5195 -15.7924 -47.9938 0
M  V30 467 C  3.8632 -15.2331 -49.3054 0 CFG=2
M  V30 468 C  4.4581 -16.3323 -50.1978 0
M  V30 469 O  5.5465 -16.8259 -49.9052 0
M  V30 470 C  4.8125 -14.0233 -49.1289 0
M  V30 471 C  5.3432 -13.3882 -50.4411 0
M  V30 472 C  4.2241 -13.0430 -51.4435 0
M  V30 473 C  6.2324 -12.1654 -50.1465 0
M  V30 474 N  3.7330 -16.6690 -51.2749 0
M  V30 475 C  4.1352 -17.6437 -52.2791 0
M  V30 476 C  4.5852 -16.8812 -53.5233 0
M  V30 477 O  3.7597 -16.5519 -54.3755 0
M  V30 478 N  5.8979 -16.6156 -53.6262 0
M  V30 479 C  6.4914 -15.8514 -54.7215 0
M  V30 480 C  6.2142 -14.3623 -54.4910 0
M  V30 481 O  6.9182 -13.7222 -53.7109 0
M  V30 482 N  5.1980 -13.8301 -55.1910 0
M  V30 483 C  4.7567 -12.4315 -55.1241 0 CFG=2
M  V30 484 C  3.2650 -12.2867 -54.7530 0
M  V30 485 O  2.7838 -11.1566 -54.6788 0
M  V30 486 C  5.0605 -11.7395 -56.4741 0
M  V30 487 C  6.5553 -11.6049 -56.8280 0
M  V30 488 S  7.3641 -10.0513 -56.3397 0
M  V30 489 C  7.4621 -10.2166 -54.5378 0
M  V30 490 N  2.5665 -13.4067 -54.5093 0
M  V30 491 C  1.1363 -13.4760 -54.2027 0 CFG=2
M  V30 492 C  0.8991 -14.2335 -52.8826 0
M  V30 493 O  1.6127 -15.1914 -52.5907 0
M  V30 494 C  0.4198 -14.1073 -55.4171 0
M  V30 495 O  1.0453 -15.3020 -55.8399 0
M  V30 496 N  -0.0836 -13.7678 -52.0904 0
M  V30 497 C  -0.3569 -14.2657 -50.7351 0 CFG=2
M  V30 498 C  -1.3702 -15.4154 -50.7594 0
M  V30 499 O  -2.2884 -15.3894 -51.5770 0
M  V30 500 C  -0.8922 -13.1287 -49.8393 0
M  V30 501 C  -0.1590 -11.8130 -49.9942 0
M  V30 502 C  -0.7925 -10.7426 -50.6550 0
M  V30 503 C  1.1703 -11.6761 -49.5443 0
M  V30 504 C  -0.0844 -9.5560 -50.9017 0
M  V30 505 C  1.8805 -10.4864 -49.7996 0
M  V30 506 C  1.2567 -9.4304 -50.4946 0
M  V30 507 O  1.9442 -8.2852 -50.7736 0
M  V30 508 N  -1.1960 -16.3910 -49.8543 0
M  V30 509 C  -2.0266 -17.5938 -49.7639 0 CFG=2
M  V30 510 C  -2.0950 -18.1085 -48.3233 0
M  V30 511 O  -1.1435 -17.9185 -47.5707 0
M  V30 512 C  -1.4426 -18.7064 -50.6480 0
M  V30 513 C  -1.2953 -18.3857 -52.1205 0
M  V30 514 C  -2.4259 -18.3644 -52.9616 0
M  V30 515 C  -0.0229 -18.0849 -52.6460 0
M  V30 516 C  -2.2841 -18.0419 -54.3243 0
M  V30 517 C  0.1209 -17.7754 -54.0098 0
M  V30 518 C  -1.0100 -17.7501 -54.8494 0
M  V30 519 O  -0.8735 -17.4442 -56.1722 0
M  V30 520 N  -3.1937 -18.8045 -47.9869 0
M  V30 521 C  -3.3911 -19.4917 -46.7065 0 CFG=2
M  V30 522 C  -2.6408 -20.8378 -46.6443 0
M  V30 523 O  -2.0216 -21.2376 -47.6270 0
M  V30 524 C  -4.8960 -19.6329 -46.3962 0
M  V30 525 S  -5.7293 -20.8973 -47.3995 0
M  V30 526 N  -2.7325 -21.5310 -45.4956 0
M  V30 527 C  -2.1496 -22.8610 -45.2646 0 CFG=2
M  V30 528 C  -2.6194 -23.9406 -46.2675 0
M  V30 529 O  -1.8102 -24.7846 -46.6514 0
M  V30 530 C  -2.4201 -23.2683 -43.7976 0
M  V30 531 C  -1.8143 -24.6164 -43.3551 0
M  V30 532 C  -2.1260 -24.9302 -41.8800 0
M  V30 533 C  -1.6763 -26.3272 -41.4115 0
M  V30 534 N  -0.2115 -26.4467 -41.2924 0 CHG=1
M  V30 535 N  -3.8960 -23.8753 -46.6866 0
M  V30 536 C  -4.5135 -24.8034 -47.6396 0 CFG=2
M  V30 537 C  -4.1579 -24.5330 -49.1149 0
M  V30 538 O  -4.3225 -25.4424 -49.9270 0
M  V30 539 C  -6.0469 -24.7681 -47.4622 0
M  V30 540 O  -6.4289 -25.4669 -46.2961 0
M  V30 541 N  -3.7135 -23.3073 -49.4427 0
M  V30 542 C  -3.5443 -22.8356 -50.8212 0 CFG=2
M  V30 543 C  -2.1232 -22.3743 -51.1716 0
M  V30 544 O  -1.8973 -22.0377 -52.3350 0
M  V30 545 C  -4.5572 -21.7044 -51.0812 0
M  V30 546 C  -5.9614 -22.1814 -51.3524 0
M  V30 547 C  -6.4552 -23.0953 -52.2581 0
M  V30 548 N  -7.0672 -21.6870 -50.6845 0
M  V30 549 C  -8.1403 -22.3006 -51.1901 0
M  V30 550 N  -7.8453 -23.1665 -52.1517 0
M  V30 551 N  -1.1925 -22.3440 -50.2018 0
M  V30 552 C  0.1803 -21.8904 -50.4323 0 CFG=2
M  V30 553 C  0.9672 -22.8752 -51.3203 0
M  V30 554 O  0.7732 -24.0855 -51.1861 0
M  V30 555 C  0.8907 -21.6255 -49.0835 0
M  V30 556 C  1.2457 -22.8727 -48.2495 0
M  V30 557 C  1.8474 -22.5023 -46.8848 0
M  V30 558 C  2.6400 -23.6310 -46.2043 0
M  V30 559 N  3.9498 -23.8577 -46.8456 0 CHG=1
M  V30 560 N  1.8689 -22.3496 -52.1821 0
M  V30 561 C  2.8176 -23.1985 -52.9194 0 CFG=2
M  V30 562 C  3.8922 -23.8008 -51.9835 0
M  V30 563 O  4.0259 -23.3436 -50.8435 0
M  V30 564 C  3.4134 -22.2269 -53.9538 0
M  V30 565 C  3.3734 -20.8719 -53.2782 0
M  V30 566 C  2.0941 -20.9279 -52.4558 0
M  V30 567 N  4.6551 -24.8029 -52.4797 0
M  V30 568 C  5.7114 -25.4619 -51.6876 0 CFG=2
M  V30 569 C  6.8131 -24.5179 -51.1687 0
M  V30 570 O  7.2144 -24.6675 -50.0150 0
M  V30 571 C  6.2547 -26.5592 -52.6201 0
M  V30 572 C  5.8700 -26.1128 -54.0218 0
M  V30 573 C  4.5334 -25.4181 -53.8031 0
M  V30 574 N  7.2279 -23.5392 -51.9927 0
M  V30 575 C  8.1422 -22.4719 -51.5894 0 CFG=2
M  V30 576 C  7.3233 -21.2295 -51.2010 0
M  V30 577 O  6.7922 -20.5315 -52.0657 0
M  V30 578 C  9.1956 -22.1439 -52.6903 0 CFG=2
M  V30 579 C  10.1463 -23.3568 -52.8481 0
M  V30 580 C  10.0121 -20.8562 -52.4132 0
M  V30 581 C  11.2128 -23.2086 -53.9419 0
M  V30 582 N  7.2420 -21.0081 -49.8829 0
M  V30 583 C  6.5607 -19.8916 -49.2391 0 CFG=2
M  V30 584 C  7.0626 -19.7472 -47.7952 0
M  V30 585 O  7.6041 -20.7000 -47.2306 0
M  V30 586 C  5.0250 -20.0685 -49.3252 0
M  V30 587 O  4.5833 -21.2140 -48.6265 0
M  V30 588 N  6.8575 -18.5507 -47.2280 0
M  V30 589 C  7.2300 -18.2050 -45.8569 0 CFG=2
M  V30 590 C  6.0666 -17.4470 -45.1925 0
M  V30 591 O  5.4128 -16.6562 -45.8754 0
M  V30 592 C  8.5544 -17.4052 -45.8666 0
M  V30 593 C  8.6046 -16.1279 -46.6930 0
M  V30 594 C  8.2245 -14.8887 -46.1337 0
M  V30 595 C  8.9193 -16.1902 -48.0681 0
M  V30 596 C  8.2535 -13.7408 -46.9140 0
M  V30 597 C  8.9398 -15.0307 -48.8309 0
M  V30 598 C  8.6283 -13.8089 -48.2495 0
M  V30 599 N  5.8041 -17.7145 -43.8888 0
M  V30 600 C  4.6809 -17.0988 -43.1605 0 CFG=2
M  V30 601 C  4.8460 -15.5824 -43.0100 0
M  V30 602 O  5.9610 -15.1084 -42.7831 0
M  V30 603 C  4.6920 -17.8082 -41.7970 0
M  V30 604 C  6.1384 -18.2203 -41.5922 0
M  V30 605 C  6.5851 -18.5837 -43.0026 0
M  V30 606 N  3.7241 -14.8579 -43.1366 0
M  V30 607 C  3.6786 -13.4145 -42.9211 0 CFG=2
M  V30 608 C  3.9737 -13.0443 -41.4541 0
M  V30 609 O  4.6776 -12.0636 -41.2502 0
M  V30 610 C  2.3382 -12.8355 -43.4316 0
M  V30 611 C  2.1512 -12.9337 -44.9679 0
M  V30 612 C  0.7339 -12.5178 -45.4004 0
M  V30 613 C  3.2063 -12.1345 -45.7537 0
M  V30 614 N  3.5280 -13.8629 -40.4826 0
M  V30 615 C  3.8157 -13.6943 -39.0536 0 CFG=2
M  V30 616 C  4.9033 -14.6828 -38.6003 0
M  V30 617 O  4.6580 -15.8896 -38.6032 0
M  V30 618 C  2.5492 -13.9011 -38.2040 0
M  V30 619 S  1.5016 -12.4298 -38.3170 0
M  V30 620 N  6.0596 -14.1447 -38.1737 0
M  V30 621 C  7.1864 -14.8944 -37.6095 0 CFG=2
M  V30 622 C  8.2244 -13.9392 -36.9995 0
M  V30 623 O  8.4123 -12.8360 -37.5108 0
M  V30 624 C  7.8475 -15.7791 -38.6843 0
M  V30 625 N  8.9017 -14.4036 -35.9318 0
M  V30 626 C  10.0001 -13.7269 -35.2131 0 CFG=2
M  V30 627 C  9.6163 -12.3470 -34.6373 0
M  V30 628 O  10.4518 -11.4420 -34.6106 0
M  V30 629 C  11.2911 -13.6314 -36.0786 0
M  V30 630 C  11.8552 -14.9604 -36.5904 0
M  V30 631 N  11.8157 -16.0187 -35.7771 0
M  V30 632 O  12.3548 -15.0228 -37.7103 0
M  V30 633 N  8.3610 -12.1987 -34.1833 0
M  V30 634 C  7.8649 -10.9411 -33.6296 0
M  V30 635 C  7.6123 -9.8761 -34.7105 0
M  V30 636 O  7.5289 -8.7018 -34.3602 0
M  V30 637 N  7.5148 -10.2634 -35.9965 0
M  V30 638 C  7.3427 -9.3606 -37.1326 0 CFG=2
M  V30 639 C  6.2727 -9.8559 -38.1137 0
M  V30 640 O  6.1762 -11.0554 -38.3695 0
M  V30 641 C  8.6947 -9.1489 -37.8502 0
M  V30 642 C  9.5973 -8.1177 -37.1499 0
M  V30 643 C  10.9599 -7.9900 -37.8280 0
M  V30 644 N  11.0669 -7.1222 -38.8359 0
M  V30 645 O  11.9118 -8.6607 -37.4388 0
M  V30 646 N  5.5267 -8.8938 -38.6789 0
M  V30 647 C  4.6960 -9.0726 -39.8654 0 CFG=2
M  V30 648 C  5.5436 -8.6439 -41.0745 0
M  V30 649 O  6.1139 -7.5536 -41.0425 0
M  V30 650 C  3.4019 -8.2107 -39.8163 0
M  V30 651 C  2.5949 -8.2002 -41.1303 0
M  V30 652 C  2.4742 -8.6927 -38.6941 0
M  V30 653 N  5.6254 -9.4969 -42.1086 0
M  V30 654 C  6.3885 -9.2144 -43.3258 0 CFG=2
M  V30 655 C  5.7752 -8.0486 -44.1171 0
M  V30 656 O  4.5543 -7.9445 -44.1868 0
M  V30 657 C  6.5315 -10.4937 -44.1761 0
M  V30 658 C  7.3791 -10.3110 -45.4243 0
M  V30 659 C  8.7803 -10.2059 -45.2965 0
M  V30 660 C  6.7839 -10.0538 -46.6792 0
M  V30 661 C  9.5599 -9.8994 -46.4028 0
M  V30 662 C  7.5828 -9.7486 -47.7738 0
M  V30 663 C  8.9634 -9.6757 -47.6370 0
M  V30 664 N  6.6310 -7.1955 -44.6883 0
M  V30 665 C  6.1882 -6.0055 -45.3926 0
M  V30 666 C  7.4098 -5.4183 -46.0787 0
M  V30 667 O  8.0015 -6.0509 -46.9535 0
M  V30 668 N  7.7498 -4.1862 -45.6870 0
M  V30 669 C  8.8598 -3.4199 -46.2339 0 CFG=2
M  V30 670 C  9.5495 -2.6907 -45.0772 0
M  V30 671 O  8.8887 -2.3365 -44.0975 0
M  V30 672 C  8.2925 -2.4473 -47.2943 0
M  V30 673 C  9.2430 -2.0968 -48.4548 0
M  V30 674 C  9.5855 -3.3412 -49.3042 0
M  V30 675 C  8.6587 -0.9570 -49.3174 0
M  V30 676 N  10.8661 -2.4684 -45.2319 0
M  V30 677 C  11.7424 -1.7748 -44.2788 0 CFG=2
M  V30 678 C  11.8569 -2.5231 -42.9283 0
M  V30 679 O  11.8494 -1.8936 -41.8700 0
M  V30 680 C  11.3075 -0.3004 -44.0994 0
M  V30 681 C  10.9729 0.4761 -45.3616 0
M  V30 682 C  11.9959 0.9952 -46.1795 0
M  V30 683 C  9.6259 0.6866 -45.7179 0
M  V30 684 C  11.6681 1.7134 -47.3472 0
M  V30 685 C  9.2959 1.3994 -46.8818 0
M  V30 686 C  10.3177 1.9144 -47.6990 0
M  V30 687 O  9.9941 2.6027 -48.8313 0
M  V30 688 N  11.9594 -3.8639 -42.9975 0
M  V30 689 C  12.0984 -4.7804 -41.8570 0 CFG=2
M  V30 690 C  13.3692 -4.5442 -41.0137 0
M  V30 691 O  13.3594 -4.8274 -39.8165 0
M  V30 692 N  14.4252 -4.0347 -41.6688 0
M  V30 693 C  15.7268 -3.6804 -41.1027 0 CFG=2
M  V30 694 C  15.6994 -2.4107 -40.2299 0
M  V30 695 O  16.5002 -2.3272 -39.3001 0
M  V30 696 C  16.8066 -3.6181 -42.2210 0
M  V30 697 C  16.4959 -2.7929 -43.4865 0
M  V30 698 N  17.5277 -2.5354 -44.2920 0
M  V30 699 O  15.3591 -2.4115 -43.7605 0
M  V30 700 N  14.7724 -1.4784 -40.5083 0
M  V30 701 C  14.5365 -0.2720 -39.7124 0 CFG=2
M  V30 702 C  13.2033 -0.4358 -38.9514 0
M  V30 703 O  12.1591 0.0629 -39.3742 0
M  V30 704 C  14.5110 1.0023 -40.6026 0 CFG=1
M  V30 705 C  15.8859 1.3400 -41.1949 0
M  V30 706 O  13.5985 0.8862 -41.6760 0
M  V30 707 N  13.2918 -1.1575 -37.8229 0
M  V30 708 C  12.2143 -1.3873 -36.8583 0 CFG=2
M  V30 709 C  12.7980 -1.2458 -35.4449 0
M  V30 710 O  13.9400 -1.6508 -35.2198 0
M  V30 711 C  11.5729 -2.7796 -37.0257 0
M  V30 712 S  10.4690 -2.7946 -38.4632 0
M  V30 713 N  11.9983 -0.6839 -34.5221 0
M  V30 714 C  12.4082 -0.4070 -33.1406 0 CFG=2
M  V30 715 C  11.5189 -1.1580 -32.1281 0
M  V30 716 O  12.0557 -1.7467 -31.1899 0
M  V30 717 C  12.3651 1.1202 -32.8301 0
M  V30 718 C  12.7124 1.4786 -31.3689 0
M  V30 719 C  13.2926 1.9123 -33.7718 0
M  V30 720 N  10.1908 -1.1407 -32.3353 0
M  V30 721 C  9.2104 -1.7618 -31.4428 0
M  V30 722 C  8.8809 -0.8769 -30.2319 0
M  V30 723 O  9.4604 0.1922 -30.0364 0
M  V30 724 N  7.9171 -1.3420 -29.4243 0
M  V30 725 C  7.4123 -0.6424 -28.2438 0 CFG=2
M  V30 726 C  7.2549 -1.6385 -27.0861 0
M  V30 727 O  6.7513 -2.7413 -27.3035 0
M  V30 728 C  6.0774 0.0439 -28.6006 0
M  V30 729 O  6.3138 1.2702 -29.2608 0
M  V30 730 N  7.6896 -1.2170 -25.8831 0
M  V30 731 C  7.7037 -1.9891 -24.6309 0 CFG=2
M  V30 732 C  6.2921 -2.4808 -24.2395 0
M  V30 733 O  6.1318 -3.6691 -23.9597 0
M  V30 734 N  5.2968 -1.5789 -24.2946 0
M  V30 735 C  3.8806 -1.8979 -24.1151 0 CFG=2
M  V30 736 C  3.0753 -1.1868 -25.2095 0
M  V30 737 O  2.8354 0.0170 -25.1213 0
M  V30 738 N  2.6380 -1.9815 -26.1992 0
M  V30 739 C  1.6756 -1.6299 -27.2531 0 CFG=2
M  V30 740 C  0.2033 -1.5888 -26.7428 0
M  V30 741 O  -0.6993 -1.2353 -27.4999 0
M  V30 742 C  1.8832 -2.6164 -28.4554 0
M  V30 743 C  0.7292 -2.8259 -29.4524 0
M  V30 744 C  3.1502 -2.2346 -29.2398 0
M  V30 745 N  -0.0019 -1.9026 -25.4501 0
M  V30 746 C  -1.2655 -1.9910 -24.7103 0 CFG=2
M  V30 747 C  -2.2396 -0.8016 -24.8705 0
M  V30 748 O  -3.4305 -1.0466 -25.0667 0
M  V30 749 C  -0.9737 -2.1782 -23.1940 0 CFG=1
M  V30 750 C  -2.1975 -2.2917 -22.2651 0
M  V30 751 O  -0.1774 -3.3354 -23.0166 0
M  V30 752 N  -1.7384 0.4466 -24.8008 0
M  V30 753 C  -2.5640 1.6578 -24.9394 0 CFG=2
M  V30 754 C  -3.0627 1.8805 -26.3764 0
M  V30 755 O  -4.2000 2.3189 -26.5380 0
M  V30 756 C  -1.9004 2.9516 -24.4014 0
M  V30 757 C  -1.4885 2.9572 -22.9167 0
M  V30 758 O  -1.9348 2.0705 -22.1533 0
M  V30 759 O  -0.8088 3.9378 -22.5418 0 CHG=-1
M  V30 760 N  -2.2440 1.5325 -27.3871 0
M  V30 761 C  -2.6424 1.5400 -28.7984 0 CFG=2
M  V30 762 C  -3.7718 0.5524 -29.1129 0
M  V30 763 O  -4.7066 0.9271 -29.8171 0
M  V30 764 C  -1.4190 1.3326 -29.7164 0
M  V30 765 C  -1.7189 1.1501 -31.1981 0
M  V30 766 C  -2.0494 2.2615 -32.0033 0
M  V30 767 C  -1.8476 -0.1457 -31.7434 0
M  V30 768 C  -2.4455 2.0779 -33.3205 0
M  V30 769 C  -2.2409 -0.3026 -33.0649 0
M  V30 770 C  -2.5397 0.8002 -33.8498 0
M  V30 771 N  -3.6665 -0.6691 -28.5619 0
M  V30 772 C  -4.6704 -1.7295 -28.6786 0 CFG=2
M  V30 773 C  -6.0172 -1.3117 -28.0775 0
M  V30 774 O  -7.0428 -1.5344 -28.7150 0
M  V30 775 C  -4.1696 -3.0130 -27.9819 0
M  V30 776 C  -2.9514 -3.6636 -28.6362 0
M  V30 777 N  -2.2699 -4.5239 -27.8816 0
M  V30 778 O  -2.6413 -3.4210 -29.8002 0
M  V30 779 N  -5.9829 -0.6882 -26.8876 0
M  V30 780 C  -7.1584 -0.1728 -26.1922 0 CFG=2
M  V30 781 C  -7.8663 0.9610 -26.9534 0
M  V30 782 O  -9.0870 0.9100 -27.0656 0
M  V30 783 C  -6.7620 0.2487 -24.7720 0
M  V30 784 N  -7.1025 1.9143 -27.5174 0
M  V30 785 C  -7.6243 2.9984 -28.3609 0 CFG=2
M  V30 786 C  -8.2195 2.4800 -29.6921 0
M  V30 787 O  -9.2727 2.9637 -30.1069 0
M  V30 788 C  -6.5279 4.0716 -28.6581 0 CFG=2
M  V30 789 C  -6.1075 4.8196 -27.3697 0
M  V30 790 C  -6.9187 5.1160 -29.7238 0
M  V30 791 C  -4.7236 5.4847 -27.4510 0
M  V30 792 N  -7.5413 1.5014 -30.3162 0
M  V30 793 C  -7.9099 0.8930 -31.5949 0 CFG=2
M  V30 794 C  -9.2014 0.0580 -31.5624 0
M  V30 795 O  -9.8976 0.0214 -32.5764 0
M  V30 796 C  -6.7409 0.0216 -32.0837 0
M  V30 797 N  -9.4783 -0.6071 -30.4273 0
M  V30 798 C  -10.5536 -1.5961 -30.2923 0 CFG=2
M  V30 799 C  -11.7293 -1.1258 -29.4054 0
M  V30 800 O  -12.7641 -1.7935 -29.4349 0
M  V30 801 C  -10.0133 -2.9305 -29.7008 0 CFG=1
M  V30 802 C  -8.8965 -3.5739 -30.5417 0
M  V30 803 O  -9.5683 -2.7885 -28.3632 0
M  V30 804 N  -11.5942 -0.0124 -28.6563 0
M  V30 805 C  -12.6776 0.5349 -27.8251 0 CFG=2
M  V30 806 C  -13.8142 1.1530 -28.6638 0
M  V30 807 O  -13.5750 1.6724 -29.7551 0
M  V30 808 C  -12.1746 1.5035 -26.7327 0
M  V30 809 S  -11.5844 3.0945 -27.3842 0
M  V30 810 N  -15.0330 1.0752 -28.1080 0
M  V30 811 C  -16.2825 1.5564 -28.7078 0 CFG=2
M  V30 812 C  -16.5595 3.0522 -28.4429 0
M  V30 813 O  -17.4830 3.5924 -29.0521 0
M  V30 814 C  -17.5058 0.6837 -28.3010 0
M  V30 815 C  -17.7284 0.3743 -26.8037 0
M  V30 816 O  -17.1102 1.0300 -25.9340 0
M  V30 817 O  -18.6168 -0.4647 -26.5400 0 CHG=-1
M  V30 818 N  -15.7778 3.6865 -27.5471 0
M  V30 819 C  -15.8865 5.0917 -27.1292 0 CFG=2
M  V30 820 C  -17.1621 5.4137 -26.3281 0
M  V30 821 O  -17.5872 6.5670 -26.3074 0
M  V30 822 C  -15.6703 6.0528 -28.3174 0
M  V30 823 C  -14.3727 5.8778 -29.0366 0
M  V30 824 C  -14.1774 5.1586 -30.1635 0
M  V30 825 C  -13.0564 6.3361 -28.6177 0
M  V30 826 C  -12.0939 5.8658 -29.5614 0
M  V30 827 C  -12.5767 7.0918 -27.5240 0
M  V30 828 N  -12.8372 5.1564 -30.4811 0
M  V30 829 C  -10.7219 6.1297 -29.4249 0
M  V30 830 C  -11.2041 7.3616 -27.3761 0
M  V30 831 C  -10.2766 6.8734 -28.3171 0
M  V30 832 N  -17.7489 4.4044 -25.6679 0
M  V30 833 C  -18.9540 4.5684 -24.8538 0 CFG=2
M  V30 834 C  -18.6488 4.7164 -23.3496 0
M  V30 835 O  -19.5391 5.1444 -22.6146 0
M  V30 836 C  -19.9471 3.3983 -25.0676 0 CFG=1
M  V30 837 C  -20.3275 3.1793 -26.5404 0
M  V30 838 O  -19.4665 2.1846 -24.5280 0
M  V30 839 N  -17.4104 4.4079 -22.9297 0
M  V30 840 C  -16.9483 4.5140 -21.5438 0 CFG=2
M  V30 841 C  -16.0706 5.7633 -21.3879 0
M  V30 842 O  -15.3265 6.0957 -22.3097 0
M  V30 843 C  -16.1283 3.2654 -21.1429 0
M  V30 844 C  -16.8480 1.9435 -21.4224 0
M  V30 845 N  -16.4604 1.2658 -22.5059 0
M  V30 846 O  -17.7405 1.5457 -20.6763 0
M  V30 847 N  -16.1392 6.4096 -20.2109 0
M  V30 848 C  -15.3362 7.5863 -19.8575 0 CFG=2
M  V30 849 C  -13.8258 7.3055 -19.7732 0
M  V30 850 O  -13.0415 8.2037 -20.0733 0
M  V30 851 C  -15.8498 8.1832 -18.5384 0
M  V30 852 N  -13.4530 6.0611 -19.4177 0
M  V30 853 C  -12.0713 5.5789 -19.3351 0
M  V30 854 C  -11.3552 5.5585 -20.6976 0
M  V30 855 O  -10.1272 5.6281 -20.7341 0
M  V30 856 N  -12.1170 5.5009 -21.8038 0
M  V30 857 C  -11.6306 5.5627 -23.1861 0 CFG=2
M  V30 858 C  -11.1080 6.9681 -23.5390 0
M  V30 859 O  -10.0634 7.0816 -24.1793 0
M  V30 860 C  -12.7025 5.1031 -24.2141 0
M  V30 861 C  -13.3920 3.7522 -23.9215 0
M  V30 862 O  -12.7713 2.8851 -23.2664 0
M  V30 863 O  -14.5015 3.5483 -24.4617 0 CHG=-1
M  V30 864 N  -11.8233 8.0064 -23.0731 0
M  V30 865 C  -11.4711 9.4199 -23.2358 0 CFG=2
M  V30 866 C  -10.3588 9.8702 -22.2792 0
M  V30 867 O  -9.5786 10.7475 -22.6482 0
M  V30 868 C  -12.7167 10.2915 -23.0225 0
M  V30 869 C  -13.8330 10.0172 -24.0035 0
M  V30 870 C  -14.7767 9.0098 -23.7276 0
M  V30 871 C  -13.9181 10.7518 -25.2011 0
M  V30 872 C  -15.7965 8.7221 -24.6502 0
M  V30 873 C  -14.9499 10.4760 -26.1146 0
M  V30 874 C  -15.8895 9.4666 -25.8416 0
M  V30 875 O  -16.8923 9.2268 -26.7308 0
M  V30 876 N  -10.2892 9.2472 -21.0890 0
M  V30 877 C  -9.1976 9.4121 -20.1293 0 CFG=2
M  V30 878 C  -7.8654 8.9152 -20.7171 0
M  V30 879 O  -6.8787 9.6448 -20.6473 0
M  V30 880 C  -9.4955 8.6890 -18.7798 0 CFG=2
M  V30 881 C  -10.6460 9.4037 -18.0372 0
M  V30 882 C  -8.2771 8.5226 -17.8393 0
M  V30 883 C  -11.2736 8.6050 -16.8838 0
M  V30 884 N  -7.8824 7.7241 -21.3439 0
M  V30 885 C  -6.7425 7.1502 -22.0590 0 CFG=2
M  V30 886 C  -6.2823 8.0220 -23.2400 0
M  V30 887 O  -5.0837 8.2551 -23.3602 0
M  V30 888 C  -7.0691 5.7019 -22.4878 0
M  V30 889 C  -5.9158 4.9388 -23.1831 0
M  V30 890 C  -4.6453 4.8390 -22.3152 0
M  V30 891 C  -6.3815 3.5494 -23.6438 0
M  V30 892 N  -7.2388 8.5383 -24.0320 0
M  V30 893 C  -7.0209 9.4299 -25.1774 0 CFG=2
M  V30 894 C  -6.3733 10.7944 -24.8604 0
M  V30 895 O  -5.9754 11.4831 -25.8004 0
M  V30 896 C  -8.3702 9.6486 -25.8737 0
M  V30 897 N  -6.2863 11.1610 -23.5701 0
M  V30 898 C  -5.7250 12.4260 -23.0945 0 CFG=2
M  V30 899 C  -4.5009 12.2404 -22.1755 0
M  V30 900 O  -3.8073 13.2297 -21.9380 0
M  V30 901 C  -6.8313 13.2268 -22.3604 0
M  V30 902 C  -6.9649 14.6507 -22.8952 0
M  V30 903 N  -6.1891 15.5759 -22.3331 0
M  V30 904 O  -7.7496 14.9111 -23.8025 0
M  V30 905 N  -4.2510 11.0168 -21.6769 0
M  V30 906 C  -3.1247 10.6883 -20.7892 0 CFG=2
M  V30 907 C  -2.0349 9.8501 -21.4956 0
M  V30 908 O  -0.9409 9.7278 -20.9446 0
M  V30 909 C  -3.5993 9.8986 -19.5384 0 CFG=1
M  V30 910 C  -4.5597 10.7037 -18.6494 0
M  V30 911 O  -4.2038 8.6655 -19.8814 0
M  V30 912 N  -2.3187 9.3309 -22.7024 0
M  V30 913 C  -1.3741 8.6309 -23.5794 0 CFG=2
M  V30 914 C  -0.3204 9.5797 -24.1983 0
M  V30 915 O  -0.4062 10.7993 -24.0341 0
M  V30 916 C  -2.1461 7.8383 -24.6585 0
M  V30 917 S  -3.0751 8.9411 -25.7662 0
M  V30 918 N  0.6440 8.9902 -24.9314 0
M  V30 919 C  1.6603 9.6946 -25.7277 0 CFG=2
M  V30 920 C  1.0319 10.6027 -26.8059 0
M  V30 921 O  -0.1129 10.3752 -27.1949 0
M  V30 922 C  2.6241 8.6958 -26.4345 0 CFG=1
M  V30 923 C  3.2031 7.6177 -25.5065 0
M  V30 924 O  2.0792 8.0833 -27.5922 0
M  V30 925 N  1.7817 11.6238 -27.2534 0
M  V30 926 C  1.2599 12.6771 -28.1253 0 CFG=2
M  V30 927 C  0.7666 12.1872 -29.5028 0
M  V30 928 O  -0.2779 12.6618 -29.9441 0
M  V30 929 C  2.2805 13.8341 -28.2174 0
M  V30 930 C  1.7645 15.1117 -28.9200 0
M  V30 931 C  0.5174 15.7223 -28.2589 0
M  V30 932 O  0.5270 15.9141 -27.0218 0
M  V30 933 O  -0.4476 15.9798 -29.0069 0 CHG=-1
M  V30 934 N  1.4558 11.2080 -30.1235 0
M  V30 935 C  0.9836 10.5815 -31.3664 0 CFG=2
M  V30 936 C  -0.2394 9.6688 -31.1542 0
M  V30 937 O  -1.0537 9.5538 -32.0699 0
M  V30 938 C  2.1338 9.8538 -32.1034 0
M  V30 939 C  1.7643 9.2732 -33.4933 0
M  V30 940 C  1.3367 10.3376 -34.5255 0
M  V30 941 N  0.8108 9.7810 -35.7872 0
M  V30 942 C  -0.4797 9.5436 -36.1016 0
M  V30 943 N  -0.8044 9.2432 -37.3644 0
M  V30 944 N  -1.4669 9.6162 -35.2003 0 CHG=1
M  V30 945 N  -0.3791 9.0799 -29.9528 0
M  V30 946 C  -1.5751 8.3368 -29.5596 0 CFG=2
M  V30 947 C  -2.7745 9.2375 -29.2267 0
M  V30 948 O  -3.8945 8.7558 -29.3780 0
M  V30 949 C  -1.2646 7.3511 -28.4105 0
M  V30 950 C  -0.6048 6.0406 -28.8811 0
M  V30 951 C  -0.1760 5.1663 -27.6833 0
M  V30 952 C  -1.5164 5.2727 -29.8579 0
M  V30 953 N  -2.5560 10.5117 -28.8366 0
M  V30 954 C  -3.6329 11.5040 -28.7130 0 CFG=2
M  V30 955 C  -4.2380 11.8362 -30.0841 0
M  V30 956 O  -5.4517 12.0088 -30.1682 0
M  V30 957 C  -3.1658 12.8170 -28.0478 0
M  V30 958 C  -2.6862 12.6890 -26.5964 0
M  V30 959 C  -2.5966 14.0588 -25.9088 0
M  V30 960 C  -1.7832 14.0073 -24.6090 0
M  V30 961 N  -1.8095 15.2969 -23.8984 0 CHG=1
M  V30 962 N  -3.3847 11.8860 -31.1243 0
M  V30 963 C  -3.7896 12.1014 -32.5104 0 CFG=2
M  V30 964 C  -4.5199 10.8879 -33.1018 0
M  V30 965 O  -5.5505 11.0846 -33.7408 0
M  V30 966 C  -2.5760 12.4771 -33.3863 0
M  V30 967 C  -1.8203 13.7557 -32.9802 0
M  V30 968 C  -0.7440 14.0965 -34.0276 0
M  V30 969 C  -2.7529 14.9435 -32.7045 0
M  V30 970 N  -4.0107 9.6644 -32.8562 0
M  V30 971 C  -4.6687 8.4214 -33.2718 0 CFG=2
M  V30 972 C  -6.0327 8.2184 -32.5930 0
M  V30 973 O  -6.9855 7.8529 -33.2760 0
M  V30 974 C  -3.7244 7.2037 -33.1286 0
M  V30 975 C  -4.3630 5.8458 -33.3921 0
M  V30 976 C  -4.8013 5.5107 -34.6913 0
M  V30 977 C  -4.6430 4.9616 -32.3278 0
M  V30 978 C  -5.4809 4.3197 -34.9092 0
M  V30 979 C  -5.3125 3.7690 -32.5708 0
M  V30 980 C  -5.7319 3.4503 -33.8556 0
M  V30 981 N  -6.1083 8.5224 -31.2868 0
M  V30 982 C  -7.3386 8.5228 -30.5023 0 CFG=2
M  V30 983 C  -8.3679 9.5537 -30.9745 0
M  V30 984 O  -9.5377 9.1996 -31.0728 0
M  V30 985 C  -7.0070 8.7425 -29.0221 0
M  V30 986 N  -7.9170 10.7824 -31.2804 0
M  V30 987 C  -8.7476 11.8753 -31.7885 0 CFG=2
M  V30 988 C  -9.3311 11.5946 -33.1819 0
M  V30 989 O  -10.5121 11.8671 -33.3941 0
M  V30 990 C  -7.9352 13.1769 -31.7835 0
M  V30 991 N  -8.5124 11.0126 -34.0776 0
M  V30 992 C  -8.9315 10.4925 -35.3786 0 CFG=2
M  V30 993 C  -9.9744 9.3720 -35.2505 0
M  V30 994 O  -11.0430 9.4858 -35.8466 0
M  V30 995 C  -7.7198 9.9513 -36.1621 0
M  V30 996 C  -6.8182 10.9997 -36.8336 0
M  V30 997 C  -5.6949 10.3388 -37.6496 0
M  V30 998 O  -6.0194 9.4967 -38.5184 0
M  V30 999 O  -4.5204 10.6920 -37.4071 0 CHG=-1
M  V30 1000 N  -9.6250 8.3113 -34.4981 0
M  V30 1001 C  -10.4252 7.0947 -34.3265 0 CFG=2
M  V30 1002 C  -11.7750 7.3674 -33.6479 0
M  V30 1003 O  -12.7814 6.8402 -34.1129 0
M  V30 1004 C  -9.6703 6.0023 -33.5168 0 CFG=1
M  V30 1005 C  -10.4331 4.6842 -33.2909 0
M  V30 1006 O  -8.4787 5.6619 -34.1950 0
M  V30 1007 N  -11.7787 8.2327 -32.6202 0
M  V30 1008 C  -12.9755 8.7379 -31.9523 0 CFG=2
M  V30 1009 C  -13.9055 9.4780 -32.9174 0
M  V30 1010 O  -15.0832 9.1344 -32.9744 0
M  V30 1011 C  -12.5611 9.6399 -30.7690 0
M  V30 1012 C  -13.6843 10.4075 -30.0339 0
M  V30 1013 C  -14.7581 9.4797 -29.4403 0
M  V30 1014 C  -13.0852 11.3522 -28.9805 0
M  V30 1015 N  -13.3603 10.4626 -33.6549 0
M  V30 1016 C  -14.1402 11.2878 -34.5724 0 CFG=2
M  V30 1017 C  -14.6894 10.4827 -35.7596 0
M  V30 1018 O  -15.8423 10.6829 -36.1208 0
M  V30 1019 C  -13.3472 12.5436 -34.9876 0
M  V30 1020 C  -14.2326 13.6302 -35.6286 0
M  V30 1021 C  -13.5602 15.0108 -35.6701 0
M  V30 1022 C  -14.5349 16.1228 -36.0950 0
M  V30 1023 N  -13.9393 17.4652 -35.9582 0 CHG=1
M  V30 1024 N  -13.9063 9.5304 -36.2921 0
M  V30 1025 C  -14.3554 8.5947 -37.3232 0 CFG=2
M  V30 1026 C  -15.4571 7.6355 -36.8410 0
M  V30 1027 O  -16.3577 7.3454 -37.6267 0
M  V30 1028 C  -13.1485 7.8402 -37.8902 0
M  V30 1029 N  -15.4065 7.2092 -35.5636 0
M  V30 1030 C  -16.4603 6.4040 -34.9366 0 CFG=2
M  V30 1031 C  -17.7453 7.2234 -34.6912 0
M  V30 1032 O  -18.8284 6.6881 -34.9142 0
M  V30 1033 C  -16.0321 5.7541 -33.5886 0 CFG=1
M  V30 1034 C  -17.0650 4.7703 -33.0035 0
M  V30 1035 O  -14.8431 5.0117 -33.7590 0
M  V30 1036 N  -17.6056 8.5034 -34.2896 0
M  V30 1037 C  -18.7009 9.4660 -34.1129 0 CFG=2
M  V30 1038 C  -19.4729 9.7207 -35.4164 0
M  V30 1039 O  -20.6971 9.6005 -35.4129 0
M  V30 1040 C  -18.1744 10.8002 -33.5305 0
M  V30 1041 C  -17.8596 10.7616 -32.0181 0
M  V30 1042 C  -17.1891 12.0204 -31.4368 0
M  V30 1043 O  -16.6400 12.8357 -32.2120 0
M  V30 1044 O  -17.2301 12.1468 -30.1924 0 CHG=-1
M  V30 1045 N  -18.7402 10.0310 -36.5016 0
M  V30 1046 C  -19.2873 10.2808 -37.8367 0 CFG=2
M  V30 1047 C  -19.9588 9.0434 -38.4594 0
M  V30 1048 O  -21.0381 9.1873 -39.0319 0
M  V30 1049 C  -18.1932 10.8660 -38.7643 0
M  V30 1050 C  -17.6364 12.2520 -38.3516 0
M  V30 1051 C  -18.6664 13.3797 -38.2308 0
M  V30 1052 O  -18.5806 14.1293 -37.2339 0
M  V30 1053 O  -19.5171 13.4940 -39.1372 0 CHG=-1
M  V30 1054 N  -19.3480 7.8549 -38.2994 0
M  V30 1055 C  -19.9069 6.5771 -38.7598 0 CFG=2
M  V30 1056 C  -21.1436 6.1345 -37.9488 0
M  V30 1057 O  -22.0280 5.4938 -38.5144 0
M  V30 1058 C  -18.8483 5.4408 -38.7240 0 CFG=1
M  V30 1059 C  -19.3400 4.0371 -39.1284 0
M  V30 1060 O  -17.7933 5.7784 -39.6031 0
M  V30 1061 N  -21.2213 6.5206 -36.6636 0
M  V30 1062 C  -22.3830 6.2721 -35.8100 0 CFG=2
M  V30 1063 C  -23.6234 7.1005 -36.2045 0
M  V30 1064 O  -24.7392 6.6518 -35.9450 0
M  V30 1065 C  -21.9851 6.4285 -34.3286 0
M  V30 1066 C  -23.0808 6.1070 -33.3297 0
M  V30 1067 C  -23.4402 4.7624 -33.0986 0
M  V30 1068 C  -23.8503 7.1351 -32.7467 0
M  V30 1069 C  -24.5093 4.4629 -32.2658 0
M  V30 1070 C  -24.9045 6.8129 -31.9047 0
M  V30 1071 C  -25.2353 5.4847 -31.6673 0
M  V30 1072 N  -23.4291 8.2477 -36.8834 0
M  V30 1073 C  -24.5258 9.0260 -37.4708 0 CFG=2
M  V30 1074 C  -25.1959 8.3120 -38.6628 0
M  V30 1075 O  -26.3740 8.5609 -38.9155 0
M  V30 1076 C  -24.0556 10.4346 -37.8807 0
M  V30 1077 C  -23.3818 11.2194 -36.7401 0
M  V30 1078 C  -23.5869 12.7392 -36.8126 0
M  V30 1079 C  -23.1091 13.3717 -38.1281 0
M  V30 1080 N  -23.3080 14.8305 -38.1265 0 CHG=1
M  V30 1081 N  -24.4483 7.4210 -39.3412 0
M  V30 1082 C  -24.9240 6.5808 -40.4439 0 CFG=2
M  V30 1083 C  -25.7648 5.3834 -39.9639 0
M  V30 1084 O  -26.5660 4.8766 -40.7498 0
M  V30 1085 C  -23.7281 6.0640 -41.2802 0
M  V30 1086 C  -22.7330 7.1452 -41.7561 0
M  V30 1087 C  -21.5332 6.5107 -42.4889 0
M  V30 1088 C  -23.4213 8.2281 -42.6062 0
M  V30 1089 N  -25.5762 4.9525 -38.7001 0
M  V30 1090 C  -26.3277 3.8571 -38.0760 0 CFG=2
M  V30 1091 C  -27.8126 4.1936 -37.8444 0
M  V30 1092 O  -28.6289 3.2757 -37.8085 0
M  V30 1093 C  -25.6130 3.3907 -36.7841 0
M  V30 1094 O  -25.9559 4.1378 -35.6306 0
M  V30 1095 N  -28.1258 5.4935 -37.7139 0
M  V30 1096 C  -29.4770 6.0163 -37.5620 0 CFG=2
M  V30 1097 C  -30.2915 5.9268 -38.8598 0
M  V30 1098 O  -29.7399 6.0612 -39.9535 0
M  V30 1099 C  -29.3904 7.4734 -37.0760 0
M  V30 1100 C  -28.9236 7.6570 -35.6408 0
M  V30 1101 C  -29.5574 6.9701 -34.5832 0
M  V30 1102 C  -27.8831 8.5611 -35.3491 0
M  V30 1103 C  -29.1766 7.2056 -33.2497 0
M  V30 1104 C  -27.5118 8.8134 -34.0144 0
M  V30 1105 C  -28.1753 8.1525 -32.9625 0
M  V30 1106 O  -27.8661 8.4466 -31.6669 0
M  V30 1107 N  -31.6035 5.7105 -38.6870 0
M  V30 1108 C  -32.5664 5.5657 -39.7698 0
M  V30 1109 C  -32.9428 6.9324 -40.3511 0
M  V30 1110 O  -32.9198 7.9510 -39.6571 0
M  V30 1111 N  -33.3257 6.9222 -41.6353 0
M  V30 1112 C  -33.8325 8.0740 -42.3752 0 CFG=2
M  V30 1113 C  -35.2565 8.4331 -41.8991 0
M  V30 1114 O  -36.1307 7.5665 -41.9060 0
M  V30 1115 C  -33.8717 7.7686 -43.9061 0 CFG=2
M  V30 1116 C  -32.4543 7.5081 -44.4739 0
M  V30 1117 C  -34.5767 8.8635 -44.7333 0
M  V30 1118 C  -32.4425 6.8939 -45.8821 0
M  V30 1119 N  -35.4626 9.7095 -41.5378 0
M  V30 1120 C  -36.7827 10.2960 -41.2906 0 CFG=2
M  V30 1121 C  -37.3243 10.8643 -42.6056 0
M  V30 1122 O  -36.5559 11.4919 -43.3238 0
M  V30 1123 C  -36.6560 11.4153 -40.2403 0
M  V30 1124 N  -38.6157 10.6583 -42.8968 0
M  V30 1125 C  -39.2567 11.1246 -44.1301 0 CFG=2
M  V30 1126 C  -40.6089 11.7674 -43.8043 0
M  V30 1127 O  -41.3568 11.1887 -43.0205 0
M  V30 1128 C  -39.5130 9.9536 -45.1182 0 CFG=1
M  V30 1129 C  -40.1130 10.3751 -46.4729 0
M  V30 1130 O  -38.2957 9.2883 -45.3886 0
M  V30 1131 N  -40.9158 12.9250 -44.4202 0
M  V30 1132 C  -42.2004 13.6170 -44.2791 0 CFG=2
M  V30 1133 C  -43.3433 12.7292 -44.8071 0
M  V30 1134 O  -43.3999 12.4541 -46.0054 0
M  V30 1135 C  -42.2570 14.9760 -45.0405 0
M  V30 1136 C  -43.6152 15.6943 -44.8849 0
M  V30 1137 C  -41.1513 15.9385 -44.5918 0
M  V30 1138 N  -44.2048 12.2902 -43.8807 0
M  V30 1139 C  -45.3758 11.4612 -44.1494 0 CFG=2
M  V30 1140 C  -46.6060 12.3277 -44.4602 0
M  V30 1141 O  -47.4420 11.9284 -45.2690 0
M  V30 1142 C  -45.6255 10.5626 -42.9169 0
M  V30 1143 C  -46.4989 9.3284 -43.2123 0
M  V30 1144 C  -46.7574 8.4298 -41.9855 0
M  V30 1145 N  -47.8675 8.9028 -41.1350 0
M  V30 1146 C  -49.0918 8.3466 -41.0197 0
M  V30 1147 N  -49.4405 7.2293 -41.6777 0
M  V30 1148 N  -49.9989 8.9291 -40.2265 0 CHG=1
M  V30 1149 N  -46.6802 13.4927 -43.7991 0
M  V30 1150 C  -47.8110 14.4085 -43.8035 0 CFG=2
M  V30 1151 C  -47.3193 15.7578 -43.2690 0
M  V30 1152 O  -46.7455 15.7997 -42.1800 0
M  V30 1153 C  -48.9587 13.7845 -42.9714 0
M  V30 1154 C  -50.1577 14.6984 -42.6334 0
M  V30 1155 C  -51.2294 14.0166 -41.7609 0
M  V30 1156 O  -52.4085 14.3996 -41.9211 0
M  V30 1157 O  -50.8741 13.1397 -40.9388 0 CHG=-1
M  V30 1158 N  -47.5556 16.8352 -44.0344 0
M  V30 1159 C  -47.2422 18.2026 -43.6197 0 CFG=2
M  V30 1160 C  -48.4228 18.7217 -42.7840 0
M  V30 1161 O  -49.4140 19.2021 -43.3349 0
M  V30 1162 C  -46.9753 19.1422 -44.8272 0
M  V30 1163 C  -46.6397 20.5896 -44.4041 0
M  V30 1164 C  -45.8427 18.6046 -45.7162 0
M  V30 1165 N  -48.3012 18.5247 -41.4624 0
M  V30 1166 C  -49.3463 18.7406 -40.4624 0 CFG=2
M  V30 1167 C  -49.8216 20.2057 -40.3904 0
M  V30 1168 O  -51.0223 20.4534 -40.2888 0
M  V30 1169 C  -48.8024 18.2305 -39.1035 0
M  V30 1170 C  -49.8441 17.5163 -38.2211 0
M  V30 1171 C  -50.4206 16.2606 -38.9065 0
M  V30 1172 C  -49.2452 17.1749 -36.8411 0
M  V30 1173 N  -48.8531 21.1256 -40.5092 0
M  V30 1174 C  -48.9808 22.5807 -40.5745 0 CFG=2
M  V30 1175 C  -47.5958 23.1606 -40.9379 0
M  V30 1176 O  -46.6995 22.4010 -41.3127 0
M  V30 1177 C  -49.5772 23.1358 -39.2523 0
M  V30 1178 O  -48.7133 22.9557 -38.1452 0
M  V30 1179 N  -47.4138 24.4867 -40.7968 0
M  V30 1180 C  -46.0746 25.0818 -40.6877 0 CFG=2
M  V30 1181 C  -45.5081 24.8636 -39.2838 0
M  V30 1182 O  -46.2542 24.8192 -38.3038 0
M  V30 1183 C  -46.0060 26.5910 -41.0464 0
M  V30 1184 C  -45.5385 26.9314 -42.4731 0
M  V30 1185 O  -45.2160 28.1236 -42.6691 0
M  V30 1186 O  -45.5515 26.0469 -43.3585 0 CHG=-1
M  V30 1187 N  -44.1725 24.7331 -39.2479 0
M  V30 1188 C  -43.3442 24.4585 -38.0736 0 CFG=2
M  V30 1189 C  -43.5584 23.0614 -37.4581 0
M  V30 1190 O  -42.8501 22.7581 -36.5041 0
M  V30 1191 N  -44.4741 22.2339 -38.0051 0
M  V30 1192 C  -44.7635 20.8753 -37.5419 0 CFG=2
M  V30 1193 C  -44.9659 19.8979 -38.7090 0
M  V30 1194 O  -45.5177 20.2692 -39.7439 0
M  V30 1195 C  -45.9818 20.8493 -36.5937 0
M  V30 1196 C  -45.8269 21.7622 -35.3527 0
M  V30 1197 C  -46.6103 21.3357 -34.1018 0
M  V30 1198 O  -47.0419 22.2525 -33.3689 0
M  V30 1199 O  -46.7196 20.1137 -33.8516 0 CHG=-1
M  V30 1200 N  -44.5215 18.6509 -38.4913 0
M  V30 1201 C  -44.5715 17.5434 -39.4449 0 CFG=2
M  V30 1202 C  -45.0183 16.2513 -38.7517 0
M  V30 1203 O  -44.9365 16.1289 -37.5312 0
M  V30 1204 C  -43.1603 17.3181 -40.0498 0
M  V30 1205 C  -42.7321 18.3423 -41.1153 0
M  V30 1206 C  -41.2300 18.2012 -41.4453 0
M  V30 1207 C  -43.6279 18.2790 -42.3658 0
M  V30 1208 N  -45.4152 15.2870 -39.5895 0
M  V30 1209 C  -45.5583 13.8715 -39.2720 0 CFG=2
M  V30 1210 C  -44.4002 13.1607 -39.9894 0
M  V30 1211 O  -44.2776 13.3257 -41.2042 0
M  V30 1212 C  -46.9282 13.4009 -39.8109 0
M  V30 1213 C  -47.7186 12.5330 -38.8742 0
M  V30 1214 C  -48.7664 12.8894 -38.0530 0
M  V30 1215 N  -47.4737 11.1637 -38.7286 0
M  V30 1216 C  -48.3671 10.7562 -37.8362 0
M  V30 1217 N  -49.1678 11.7331 -37.4110 0
M  V30 1218 N  -43.5715 12.4043 -39.2474 0
M  V30 1219 C  -42.4238 11.6853 -39.8131 0 CFG=2
M  V30 1220 C  -42.6599 10.1677 -39.8126 0
M  V30 1221 O  -43.1503 9.6138 -38.8284 0
M  V30 1222 C  -41.1211 12.0155 -39.0454 0
M  V30 1223 C  -40.6211 13.4724 -39.1727 0
M  V30 1224 C  -39.3153 13.6465 -38.3788 0
M  V30 1225 C  -40.4266 13.9334 -40.6306 0
M  V30 1226 N  -42.2314 9.5387 -40.9162 0
M  V30 1227 C  -42.1364 8.1001 -41.1268 0 CFG=2
M  V30 1228 C  -40.6486 7.7241 -41.0970 0
M  V30 1229 O  -39.8828 8.2241 -41.9205 0
M  V30 1230 C  -42.7810 7.7608 -42.4879 0
M  V30 1231 O  -42.6881 6.3830 -42.7897 0
M  V30 1232 N  -40.2721 6.8564 -40.1492 0
M  V30 1233 C  -38.8890 6.4387 -39.9279 0 CFG=2
M  V30 1234 C  -38.5800 5.0897 -40.5851 0
M  V30 1235 O  -39.4648 4.2407 -40.7059 0
M  V30 1236 C  -38.6296 6.3770 -38.4173 0
M  V30 1237 C  -38.6263 7.7097 -37.7360 0
M  V30 1238 C  -39.7036 8.3458 -37.2215 0
M  V30 1239 C  -37.5038 8.6250 -37.5710 0
M  V30 1240 C  -37.9650 9.7834 -36.8763 0
M  V30 1241 C  -36.1393 8.5958 -37.9432 0
M  V30 1242 N  -39.3139 9.5591 -36.6939 0
M  V30 1243 C  -37.1092 10.8458 -36.5376 0
M  V30 1244 C  -35.2806 9.6703 -37.6381 0
M  V30 1245 C  -35.7564 10.7854 -36.9203 0
M  V30 1246 N  -37.3010 4.9235 -40.9592 0
M  V30 1247 C  -36.7301 3.6982 -41.5109 0 CFG=2
M  V30 1248 C  -36.7325 2.5536 -40.4849 0
M  V30 1249 O  -36.2111 2.7178 -39.3805 0
M  V30 1250 C  -35.3188 4.0078 -42.0554 0
M  V30 1251 C  -34.5177 2.7814 -42.5625 0
M  V30 1252 C  -33.1464 3.0938 -43.1849 0
M  V30 1253 O  -32.4753 2.1136 -43.5757 0
M  V30 1254 O  -32.7631 4.2826 -43.2554 0 CHG=-1
M  V30 1255 N  -37.3035 1.4135 -40.8979 0
M  V30 1256 C  -37.3425 0.1738 -40.1285 0 CFG=2
M  V30 1257 C  -35.9649 -0.5196 -40.0947 0
M  V30 1258 O  -35.2317 -0.4908 -41.0840 0
M  V30 1259 C  -38.3938 -0.8106 -40.7163 0
M  V30 1260 C  -39.8236 -0.2735 -40.5289 0
M  V30 1261 C  -38.1549 -1.2189 -42.1866 0
M  V30 1262 N  -35.6482 -1.1285 -38.9415 0
M  V30 1263 C  -34.4157 -1.8864 -38.7187 0
M  V30 1264 C  -33.2207 -1.0136 -38.2940 0
M  V30 1265 O  -32.1905 -1.5812 -37.9330 0
M  V30 1266 N  -33.3436 0.3272 -38.3071 0
M  V30 1267 C  -32.3304 1.2665 -37.8192 0 CFG=2
M  V30 1268 C  -32.9261 2.1434 -36.6983 0
M  V30 1269 O  -34.0762 2.5673 -36.8316 0
M  V30 1270 C  -31.8462 2.1591 -38.9787 0
M  V30 1271 C  -30.8141 1.4903 -39.8998 0
M  V30 1272 C  -30.1196 2.5152 -40.8085 0
M  V30 1273 C  -29.0193 1.9043 -41.6846 0
M  V30 1274 N  -28.3862 2.9294 -42.5319 0 CHG=1
M  V30 1275 N  -32.1414 2.4191 -35.6251 0
M  V30 1276 C  -32.5811 3.2708 -34.5001 0 CFG=2
M  V30 1277 C  -32.9032 4.7231 -34.8953 0
M  V30 1278 O  -32.3718 5.2311 -35.8821 0
M  V30 1279 C  -31.4042 3.2082 -33.5084 0
M  V30 1280 C  -30.1897 2.8900 -34.3611 0
M  V30 1281 C  -30.7659 1.9573 -35.4144 0
M  V30 1282 N  -33.7740 5.3584 -34.0989 0
M  V30 1283 C  -34.1553 6.7594 -34.2586 0 CFG=2
M  V30 1284 C  -33.2467 7.6362 -33.3676 0
M  V30 1285 O  -33.1505 7.3525 -32.1719 0
M  V30 1286 C  -35.6289 6.9253 -33.8413 0
M  V30 1287 C  -36.6024 6.0910 -34.6897 0
M  V30 1288 C  -38.0688 6.3759 -34.3384 0
M  V30 1289 N  -38.9810 5.4292 -35.0019 0
M  V30 1290 C  -40.3213 5.5187 -35.0976 0
M  V30 1291 N  -41.0111 6.5400 -34.5656 0
M  V30 1292 N  -40.9878 4.5546 -35.7448 0 CHG=1
M  V30 1293 N  -32.5936 8.6743 -33.9412 0
M  V30 1294 C  -31.7552 9.6080 -33.1666 0 CFG=2
M  V30 1295 C  -32.5792 10.4982 -32.2055 0
M  V30 1296 O  -33.7298 10.8031 -32.5284 0
M  V30 1297 C  -31.0697 10.4529 -34.2543 0
M  V30 1298 C  -32.0325 10.4292 -35.4266 0
M  V30 1299 C  -32.6587 9.0500 -35.3488 0
M  V30 1300 N  -31.9720 10.9373 -31.0739 0
M  V30 1301 C  -32.5682 11.9460 -30.1718 0 CFG=2
M  V30 1302 C  -32.9660 13.2506 -30.8848 0
M  V30 1303 O  -32.1342 13.8466 -31.5695 0
M  V30 1304 C  -31.4790 12.1947 -29.1132 0
M  V30 1305 C  -30.6364 10.9346 -29.1144 0
M  V30 1306 C  -30.6732 10.4872 -30.5681 0
M  V30 1307 N  -34.2410 13.6405 -30.7358 0
M  V30 1308 C  -34.8153 14.8222 -31.3771 0 CFG=2
M  V30 1309 C  -34.6037 16.0571 -30.4881 0
M  V30 1310 O  -35.5081 16.4635 -29.7583 0
M  V30 1311 C  -36.3066 14.5700 -31.7025 0
M  V30 1312 C  -36.5811 13.3856 -32.6594 0
M  V30 1313 C  -38.0940 13.1636 -32.8082 0
M  V30 1314 C  -35.9039 13.5348 -34.0388 0
M  V30 1315 N  -33.3925 16.6230 -30.5824 0
M  V30 1316 C  -32.9697 17.8569 -29.9178 0 CFG=2
M  V30 1317 C  -31.9647 18.6125 -30.7975 0
M  V30 1318 O  -31.5556 18.1021 -31.8424 0
M  V30 1319 C  -32.4984 17.5923 -28.4619 0
M  V30 1320 C  -31.6107 16.3634 -28.2250 0
M  V30 1321 N  -32.1289 15.3601 -27.5118 0
M  V30 1322 O  -30.4615 16.3341 -28.6503 0
M  V30 1323 N  -31.6135 19.8407 -30.3754 0
M  V30 1324 C  -30.7732 20.7770 -31.1345 0 CFG=2
M  V30 1325 C  -29.3230 20.2958 -31.3732 0
M  V30 1326 O  -28.6720 20.7977 -32.2890 0
M  V30 1327 N  -28.8665 19.3032 -30.5864 0
M  V30 1328 C  -27.5815 18.6044 -30.7295 0 CFG=2
M  V30 1329 C  -27.4732 17.8149 -32.0532 0
M  V30 1330 O  -26.3596 17.5962 -32.5281 0
M  V30 1331 C  -27.3554 17.6091 -29.5574 0
M  V30 1332 C  -27.4120 18.1792 -28.1314 0
M  V30 1333 N  -26.5924 17.6258 -27.2352 0
M  V30 1334 O  -28.2012 19.0681 -27.8184 0
M  V30 1335 N  -28.6244 17.3883 -32.5993 0
M  V30 1336 C  -28.7543 16.5399 -33.7791 0 CFG=2
M  V30 1337 C  -29.3287 17.3743 -34.9259 0
M  V30 1338 O  -30.5366 17.6146 -34.9659 0
M  V30 1339 C  -29.6516 15.3392 -33.4138 0
M  V30 1340 C  -28.9627 14.3475 -32.4950 0
M  V30 1341 C  -29.0077 14.5405 -31.1023 0
M  V30 1342 C  -28.2414 13.2575 -33.0219 0
M  V30 1343 C  -28.3259 13.6655 -30.2373 0
M  V30 1344 C  -27.5760 12.3653 -32.1586 0
M  V30 1345 C  -27.6153 12.5711 -30.7652 0
M  V30 1346 O  -26.9751 11.7067 -29.9264 0
M  V30 1347 N  -28.4297 17.8133 -35.8211 0
M  V30 1348 C  -28.7604 18.6389 -36.9766 0 CFG=2
M  V30 1349 C  -28.8107 17.7499 -38.2328 0
M  V30 1350 O  -27.7981 17.1917 -38.6572 0
M  V30 1351 C  -27.7343 19.7852 -37.1947 0
M  V30 1352 C  -28.1063 20.6892 -38.3860 0
M  V30 1353 C  -27.5588 20.6535 -35.9338 0
M  V30 1354 N  -30.0241 17.6455 -38.7802 0
M  V30 1355 C  -30.3927 16.9316 -39.9956 0 CFG=2
M  V30 1356 C  -30.1890 17.8175 -41.2309 0
M  V30 1357 O  -29.9215 19.0096 -41.0949 0
M  V30 1358 C  -31.8800 16.5480 -39.8828 0
M  V30 1359 C  -32.2050 15.5882 -38.7554 0
M  V30 1360 C  -32.3170 16.0686 -37.4336 0
M  V30 1361 C  -32.2288 14.1962 -38.9845 0
M  V30 1362 C  -32.5090 15.1843 -36.3849 0
M  V30 1363 C  -32.4341 13.3258 -37.9223 0
M  V30 1364 C  -32.5771 13.8224 -36.6316 0
M  V30 1365 N  -30.3616 17.2165 -42.4146 0
M  V30 1366 C  -30.3921 17.9078 -43.6970 0 CFG=2
M  V30 1367 C  -31.5230 17.3115 -44.5306 0
M  V30 1368 O  -31.5267 16.1046 -44.7703 0
M  V30 1369 C  -29.0568 17.7518 -44.4619 0 CFG=1
M  V30 1370 C  -29.0494 18.2175 -45.9287 0
M  V30 1371 O  -28.1004 18.5338 -43.7856 0
M  V30 1372 N  -32.4457 18.1867 -44.9566 0
M  V30 1373 C  -33.5784 17.8384 -45.8010 0
M  V30 1374 C  -33.1125 17.6323 -47.2481 0
M  V30 1375 O  -32.1136 18.2073 -47.6825 0
M  V30 1376 N  -33.8613 16.8015 -47.9825 0
M  V30 1377 C  -33.5862 16.3984 -49.3571 0 CFG=2
M  V30 1378 C  -34.9165 16.2202 -50.0889 0
M  V30 1379 O  -35.7887 15.5434 -49.5504 0
M  V30 1380 C  -32.8257 15.0545 -49.3728 0
M  V30 1381 C  -31.3859 15.0847 -48.9001 0
M  V30 1382 C  -31.0585 14.6785 -47.5900 0
M  V30 1383 C  -30.3637 15.4859 -49.7826 0
M  V30 1384 C  -29.7192 14.6946 -47.1561 0
M  V30 1385 C  -29.0213 15.4694 -49.3599 0
M  V30 1386 C  -28.6992 15.0954 -48.0409 0
M  V30 1387 O  -27.4009 15.1291 -47.6225 0
M  V30 1388 N  -35.0250 16.7590 -51.3137 0
M  V30 1389 C  -36.1601 16.5162 -52.2075 0 CFG=2
M  V30 1390 C  -35.7594 15.4885 -53.2769 0
M  V30 1391 O  -34.6437 15.5452 -53.7968 0
M  V30 1392 N  -36.6869 14.5653 -53.5722 0
M  V30 1393 C  -36.4802 13.4322 -54.4715 0 CFG=2
M  V30 1394 C  -36.5785 13.8915 -55.9446 0
M  V30 1395 O  -37.6826 14.0932 -56.4526 0
M  V30 1396 C  -37.5284 12.3095 -54.1984 0
M  V30 1397 C  -37.2825 11.0435 -55.0446 0
M  V30 1398 C  -37.5923 11.9240 -52.7065 0
M  V30 1399 N  -35.4138 14.0705 -56.5922 0
M  V30 1400 C  -35.2889 14.4490 -58.0064 0 CFG=2
M  V30 1401 C  -35.4866 13.2350 -58.9469 0
M  V30 1402 O  -35.6949 12.1219 -58.4614 0
M  V30 1403 C  -33.9315 15.1690 -58.3033 0 CFG=1
M  V30 1404 C  -33.4372 16.0968 -57.1843 0
M  V30 1405 O  -32.8689 14.3397 -58.7391 0
M  V30 1406 N  -35.4182 13.4718 -60.2736 0
M  V30 1407 C  -35.5813 12.4648 -61.3355 0 CFG=2
M  V30 1408 C  -34.7739 11.1620 -61.1569 0
M  V30 1409 O  -35.3241 10.0946 -61.4241 0
M  V30 1410 N  -33.5151 11.2606 -60.6923 0
M  V30 1411 C  -32.6716 10.0923 -60.4238 0 CFG=2
M  V30 1412 C  -31.6130 10.3446 -59.3288 0
M  V30 1413 O  -30.6329 9.6011 -59.2740 0
M  V30 1414 C  -32.0397 9.5398 -61.7377 0
M  V30 1415 C  -32.0618 8.0085 -61.8760 0
M  V30 1416 N  -31.8344 7.2662 -60.7893 0
M  V30 1417 O  -32.2623 7.4931 -62.9723 0
M  V30 1418 N  -31.8152 11.3492 -58.4586 0
M  V30 1419 C  -30.9176 11.6426 -57.3362 0 CFG=2
M  V30 1420 C  -31.6658 12.4393 -56.2452 0
M  V30 1421 O  -32.8965 12.4000 -56.1982 0
M  V30 1422 C  -29.6082 12.3017 -57.8506 0
M  V30 1423 O  -28.5785 12.2658 -56.8788 0
M  V30 1424 N  -30.9117 13.1244 -55.3725 0
M  V30 1425 C  -31.4175 13.9475 -54.2776 0 CFG=2
M  V30 1426 C  -30.7455 15.3297 -54.3293 0
M  V30 1427 O  -29.5503 15.4123 -54.6168 0
M  V30 1428 C  -31.2077 13.2089 -52.9287 0
M  V30 1429 C  -29.7883 13.1997 -52.3026 0
M  V30 1430 C  -28.7334 12.3077 -52.9817 0
M  V30 1431 C  -28.9821 10.8012 -52.7905 0
M  V30 1432 N  -27.8804 9.9922 -53.3431 0 CHG=1
M  V30 1433 N  -31.5225 16.3801 -54.0208 0
M  V30 1434 C  -31.0474 17.7619 -53.9239 0 CFG=2
M  V30 1435 C  -31.2735 18.2686 -52.4916 0
M  V30 1436 O  -32.3847 18.1364 -51.9793 0
M  V30 1437 C  -31.7651 18.6942 -54.9506 0
M  V30 1438 C  -33.2978 18.7987 -54.7989 0
M  V30 1439 C  -31.1604 20.1106 -54.9844 0
M  V30 1440 N  -30.2159 18.8322 -51.8762 0
M  V30 1441 C  -30.2644 19.4182 -50.5336 0 CFG=2
M  V30 1442 C  -31.2483 20.5920 -50.4319 0
M  V30 1443 O  -31.2675 21.4570 -51.3075 0
M  V30 1444 C  -28.8607 19.8530 -50.0556 0
M  V30 1445 C  -27.9900 18.6754 -49.5790 0
M  V30 1446 C  -26.7397 19.0847 -48.7937 0
M  V30 1447 N  -25.8298 18.1323 -48.5802 0
M  V30 1448 O  -26.6036 20.2224 -48.3493 0
M  V30 1449 N  -32.0213 20.5845 -49.3403 0
M  V30 1450 C  -33.0401 21.5787 -49.0100 0 CFG=2
M  V30 1451 C  -32.7020 22.2946 -47.6752 0
M  V30 1452 O  -33.5424 22.9941 -47.1101 0
M  V30 1453 C  -34.4594 20.9096 -49.0880 0 CFG=2
M  V30 1454 C  -35.3080 21.6209 -50.1571 0
M  V30 1455 C  -35.2612 20.7437 -47.7817 0
M  V30 1456 C  -36.6254 20.9174 -50.4947 0
M  V30 1457 N  -31.4282 22.1784 -47.2558 0
M  V30 1458 C  -30.8257 22.8769 -46.1244 0
M  V30 1459 C  -30.9976 22.0910 -44.8224 0
M  V30 1460 O  -31.6293 21.0345 -44.7952 0
M  V30 1461 N  -30.3853 22.6130 -43.7472 0
M  V30 1462 C  -30.3037 21.9498 -42.4466 0 CFG=2
M  V30 1463 C  -31.5305 22.2139 -41.5578 0
M  V30 1464 O  -32.1439 23.2753 -41.6570 0
M  V30 1465 C  -28.9696 22.3037 -41.7603 0
M  V30 1466 C  -27.7473 21.8880 -42.6165 0
M  V30 1467 C  -26.4509 21.6229 -41.8351 0
M  V30 1468 O  -25.7189 20.6979 -42.2536 0
M  V30 1469 O  -26.1958 22.3433 -40.8446 0 CHG=-1
M  V30 1470 N  -31.8691 21.2187 -40.7222 0
M  V30 1471 C  -33.0400 21.1983 -39.8399 0 CFG=2
M  V30 1472 C  -32.6656 20.6192 -38.4712 0
M  V30 1473 O  -31.7707 19.7853 -38.3823 0
M  V30 1474 C  -34.1601 20.3344 -40.4703 0
M  V30 1475 C  -34.8534 20.9576 -41.6657 0
M  V30 1476 C  -36.0412 21.6964 -41.4908 0
M  V30 1477 C  -34.3033 20.8164 -42.9546 0
M  V30 1478 C  -36.6554 22.3150 -42.5961 0
M  V30 1479 C  -34.9144 21.4382 -44.0581 0
M  V30 1480 C  -36.0935 22.1856 -43.8803 0
M  V30 1481 O  -36.6891 22.7867 -44.9487 0
M  V30 1482 N  -33.4138 21.0207 -37.4376 0
M  V30 1483 C  -33.4213 20.3889 -36.1153 0 CFG=2
M  V30 1484 C  -34.8885 20.1839 -35.7006 0
M  V30 1485 O  -35.7628 20.9243 -36.1533 0
M  V30 1486 C  -32.7099 21.2599 -35.0438 0 CFG=1
M  V30 1487 C  -31.1958 21.3593 -35.2554 0
M  V30 1488 O  -33.2295 22.5734 -34.9879 0
M  V30 1489 N  -35.1287 19.1466 -34.8824 0
M  V30 1490 C  -36.4688 18.6936 -34.5029 0 CFG=2
M  V30 1491 C  -36.6236 18.6055 -32.9791 0
M  V30 1492 O  -35.6331 18.6251 -32.2476 0
M  V30 1493 C  -36.7700 17.3314 -35.1634 0
M  V30 1494 C  -36.8142 17.3442 -36.6814 0
M  V30 1495 C  -37.9859 17.7233 -37.3689 0
M  V30 1496 C  -35.6347 17.1182 -37.4179 0
M  V30 1497 C  -37.9846 17.7743 -38.7574 0
M  V30 1498 C  -35.6470 17.1981 -38.8029 0
M  V30 1499 C  -36.8210 17.5188 -39.4684 0
M  V30 1500 N  -37.8882 18.5038 -32.5450 0
M  V30 1501 C  -38.3168 18.4118 -31.1507 0 CFG=2
M  V30 1502 C  -39.7281 17.7916 -31.1474 0
M  V30 1503 O  -40.4482 17.9485 -32.1313 0
M  V30 1504 C  -38.2511 19.8314 -30.5377 0
M  V30 1505 C  -38.2716 19.8811 -28.9950 0
M  V30 1506 C  -37.8758 21.2465 -28.3950 0
M  V30 1507 O  -37.8627 22.2630 -29.1296 0
M  V30 1508 O  -37.5750 21.2503 -27.1818 0 CHG=-1
M  V30 1509 N  -40.1041 17.0689 -30.0776 0
M  V30 1510 C  -41.3849 16.3473 -29.9891 0 CFG=2
M  V30 1511 C  -42.5974 17.3067 -29.9730 0
M  V30 1512 O  -42.5563 18.3218 -29.2775 0
M  V30 1513 C  -41.3606 15.4404 -28.7371 0
M  V30 1514 C  -42.4982 14.3982 -28.6713 0
M  V30 1515 C  -42.5807 13.6782 -27.3081 0
M  V30 1516 C  -42.5496 12.1405 -27.3750 0
M  V30 1517 N  -41.2089 11.6252 -27.7052 0 CHG=1
M  V30 1518 N  -43.6546 16.9563 -30.7294 0
M  V30 1519 C  -44.8980 17.7237 -30.8607 0
M  V30 1520 C  -45.8515 17.4199 -29.7015 0
M  V30 1521 O  -46.9059 18.0394 -29.5786 0
M  V30 1522 N  -45.7521 12.9516 -34.1714 0
M  V30 1523 C  -45.6493 14.3029 -34.7528 0 CFG=2
M  V30 1524 C  -44.4613 15.0397 -34.0877 0
M  V30 1525 O  -44.2508 14.9370 -32.8759 0
M  V30 1526 C  -46.9495 15.1073 -34.5836 0
M  V30 1527 N  -43.7153 15.7924 -34.9126 0
M  V30 1528 C  -42.5468 16.5830 -34.5216 0 CFG=2
M  V30 1529 C  -42.7359 18.0662 -34.8950 0
M  V30 1530 O  -43.6096 18.3971 -35.6941 0
M  V30 1531 C  -41.2610 16.0703 -35.2347 0
M  V30 1532 C  -40.9692 14.6021 -34.8818 0
M  V30 1533 C  -41.2347 16.2890 -36.7622 0
M  V30 1534 N  -41.8716 18.9130 -34.3183 0
M  V30 1535 C  -41.7844 20.3542 -34.5256 0 CFG=2
M  V30 1536 C  -40.4200 20.6488 -35.1770 0
M  V30 1537 O  -39.3988 20.4293 -34.5267 0
M  V30 1538 C  -41.8373 21.1117 -33.1628 0
M  V30 1539 C  -41.7059 22.6438 -33.2884 0
M  V30 1540 C  -43.1058 20.7678 -32.3692 0
M  V30 1541 N  -40.4161 21.1255 -36.4343 0
M  V30 1542 C  -39.1913 21.4198 -37.1847 0 CFG=2
M  V30 1543 C  -38.7778 22.8951 -37.0611 0
M  V30 1544 O  -39.6270 23.7874 -37.0569 0
M  V30 1545 C  -39.3426 20.9701 -38.6543 0
M  V30 1546 C  -40.2212 21.7867 -39.5881 0
M  V30 1547 C  -39.6788 22.8276 -40.3714 0
M  V30 1548 C  -41.5816 21.4537 -39.7249 0
M  V30 1549 C  -40.4924 23.5181 -41.2919 0
M  V30 1550 C  -42.3912 22.1278 -40.6592 0
M  V30 1551 C  -41.8476 23.1625 -41.4424 0
M  V30 1552 O  -42.6320 23.8225 -42.3426 0
M  V30 1553 N  -37.4541 23.0969 -37.0031 0
M  V30 1554 C  -36.7716 24.3845 -36.9798 0 CFG=2
M  V30 1555 C  -35.7405 24.3650 -38.1187 0
M  V30 1556 O  -34.6128 23.9083 -37.9187 0
M  V30 1557 N  -36.1631 24.8249 -39.3071 0
M  V30 1558 C  -35.3197 24.8747 -40.4994 0
M  V30 1559 C  -34.3823 26.0834 -40.4334 0
M  V30 1560 O  -34.8123 27.1884 -40.1018 0
M  V30 1561 N  -33.1107 25.8639 -40.8082 0
M  V30 1562 C  -32.0800 26.8963 -40.9852 0 CFG=2
M  V30 1563 C  -32.4238 27.8555 -42.1449 0
M  V30 1564 O  -32.1414 29.0490 -42.0559 0
M  V30 1565 N  -33.0730 27.2986 -43.1760 0
M  V30 1566 C  -33.6563 27.9867 -44.3184 0 CFG=2
M  V30 1567 C  -35.1770 27.7269 -44.3440 0
M  V30 1568 O  -35.6388 26.6927 -43.8549 0
M  V30 1569 C  -33.0008 27.4779 -45.6338 0 CFG=1
M  V30 1570 C  -32.9651 25.9456 -45.7665 0
M  V30 1571 O  -33.6338 27.9980 -46.7897 0
M  V30 1572 N  -35.9196 28.6859 -44.9155 0
M  V30 1573 C  -37.3653 28.6233 -45.0968 0 CFG=2
M  V30 1574 C  -37.7240 27.9359 -46.4320 0
M  V30 1575 O  -37.4606 28.4834 -47.5024 0
M  V30 1576 C  -38.0077 30.0394 -44.9814 0 CFG=1
M  V30 1577 C  -37.3580 31.1428 -45.8415 0
M  V30 1578 O  -39.3856 30.0147 -45.3082 0
M  V30 1579 N  -38.3288 26.7437 -46.3259 0
M  V30 1580 C  -38.8776 25.9794 -47.4442 0 CFG=2
M  V30 1581 C  -40.2984 25.5319 -47.1092 0
M  V30 1582 O  -40.6017 25.2238 -45.9553 0
M  V30 1583 C  -37.9990 24.7455 -47.7395 0
M  V30 1584 C  -36.8805 24.9934 -48.7296 0
M  V30 1585 C  -37.1062 24.8105 -50.1101 0
M  V30 1586 C  -35.6105 25.3953 -48.2765 0
M  V30 1587 C  -36.0580 25.0080 -51.0302 0
M  V30 1588 C  -34.5602 25.5867 -49.1941 0
M  V30 1589 C  -34.7812 25.3869 -50.5702 0
M  V30 1590 O  -33.7561 25.5576 -51.4535 0
M  V30 1591 N  -41.1142 25.4372 -48.1685 0
M  V30 1592 C  -42.4375 24.8249 -48.1546 0 CFG=2
M  V30 1593 C  -42.2752 23.3149 -48.3967 0
M  V30 1594 O  -42.6740 22.8206 -49.4527 0
M  V30 1595 N  -41.6398 22.6234 -47.4305 0
M  V30 1596 C  -41.3413 21.1929 -47.4973 0 CFG=2
M  V30 1597 C  -42.6125 20.3461 -47.6471 0
M  V30 1598 O  -43.6121 20.5981 -46.9749 0
M  V30 1599 C  -40.4050 20.7405 -46.3461 0
M  V30 1600 C  -40.7161 21.2231 -44.9057 0
M  V30 1601 C  -42.0530 20.7166 -44.3384 0
M  V30 1602 C  -39.5542 20.8653 -43.9584 0
M  V30 1603 N  -42.5394 19.4026 -48.5896 0
M  V30 1604 C  -43.6386 18.5509 -49.0303 0 CFG=2
M  V30 1605 C  -43.3683 17.0971 -48.6225 0
M  V30 1606 O  -42.2631 16.7582 -48.1942 0
M  V30 1607 C  -43.8826 18.7410 -50.5546 0
M  V30 1608 C  -42.6366 18.7174 -51.4539 0
M  V30 1609 N  -42.4693 17.6480 -52.2328 0
M  V30 1610 O  -41.8491 19.6620 -51.4654 0
M  V30 1611 N  -44.4127 16.2648 -48.7489 0
M  V30 1612 C  -44.3713 14.8280 -48.4794 0 CFG=2
M  V30 1613 C  -43.3751 14.1098 -49.4127 0
M  V30 1614 O  -43.3536 14.3855 -50.6131 0
M  V30 1615 C  -45.7907 14.2023 -48.6133 0
M  V30 1616 C  -45.8435 12.6608 -48.5495 0
M  V30 1617 C  -46.7416 14.7814 -47.5489 0
M  V30 1618 N  -42.5664 13.2189 -48.8206 0
M  V30 1619 C  -41.5284 12.4579 -49.5105 0
M  V30 1620 C  -40.1315 13.0654 -49.3084 0
M  V30 1621 O  -39.1538 12.3706 -49.5875 0
M  V30 1622 N  -40.0102 14.3100 -48.7994 0
M  V30 1623 C  -38.7237 14.8993 -48.3978 0 CFG=2
M  V30 1624 C  -38.1702 14.1752 -47.1631 0
M  V30 1625 O  -38.9542 13.8363 -46.2791 0
M  V30 1626 C  -38.7498 16.4264 -48.1224 0
M  V30 1627 C  -39.0341 17.3523 -49.3186 0
M  V30 1628 O  -38.6772 18.5419 -49.1824 0
M  V30 1629 O  -39.6845 16.9239 -50.2970 0 CHG=-1
M  V30 1630 N  -36.8482 13.9425 -47.1277 0
M  V30 1631 C  -36.2214 13.1119 -46.0995 0 CFG=2
M  V30 1632 C  -35.0021 13.7818 -45.4585 0
M  V30 1633 O  -34.3422 14.6004 -46.0904 0
M  V30 1634 C  -35.9252 11.7146 -46.6797 0
M  V30 1635 C  -34.7542 11.6046 -47.6422 0
M  V30 1636 C  -34.9516 11.8094 -49.0231 0
M  V30 1637 C  -33.4697 11.2722 -47.1626 0
M  V30 1638 C  -33.8755 11.6603 -49.9194 0
M  V30 1639 C  -32.3941 11.1210 -48.0561 0
M  V30 1640 C  -32.5999 11.3058 -49.4359 0
M  V30 1641 O  -31.5642 11.1320 -50.3040 0
M  V30 1642 N  -34.7581 13.4054 -44.1951 0
M  V30 1643 C  -33.8361 14.0395 -43.2641 0 CFG=2
M  V30 1644 C  -32.7998 13.0214 -42.7843 0
M  V30 1645 O  -33.1802 11.9800 -42.2445 0
M  V30 1646 C  -34.6412 14.5836 -42.0679 0
M  V30 1647 C  -35.6907 15.6079 -42.4440 0
M  V30 1648 C  -35.3168 16.9033 -42.8611 0
M  V30 1649 C  -37.0440 15.2229 -42.5173 0
M  V30 1650 C  -36.2872 17.7894 -43.3118 0
M  V30 1651 C  -37.9969 16.1348 -42.9395 0
M  V30 1652 C  -37.6227 17.4094 -43.3436 0
M  V30 1653 N  -31.5140 13.3598 -42.9680 0
M  V30 1654 C  -30.3800 12.5487 -42.5238 0 CFG=2
M  V30 1655 C  -29.3367 13.4671 -41.8695 0
M  V30 1656 O  -29.0831 14.5607 -42.3744 0
M  V30 1657 C  -29.6851 11.8062 -43.7056 0
M  V30 1658 C  -28.5702 10.8387 -43.2514 0
M  V30 1659 C  -30.7006 11.0455 -44.5703 0
M  V30 1660 N  -28.7378 12.9811 -40.7718 0
M  V30 1661 C  -27.6260 13.6041 -40.0521 0 CFG=2
M  V30 1662 C  -26.3652 13.5802 -40.9260 0
M  V30 1663 O  -25.8456 12.4936 -41.1857 0
M  V30 1664 C  -27.3916 12.8152 -38.7454 0
M  V30 1665 C  -28.6052 12.8074 -37.7966 0
M  V30 1666 C  -28.4298 11.7445 -36.7002 0
M  V30 1667 C  -28.8744 14.2065 -37.2199 0
M  V30 1668 N  -25.9261 14.7587 -41.3990 0
M  V30 1669 C  -24.8570 14.8635 -42.3933 0 CFG=2
M  V30 1670 C  -23.4776 14.5266 -41.8063 0
M  V30 1671 O  -22.8597 15.3582 -41.1392 0
M  V30 1672 C  -24.7845 16.2531 -43.0689 0 CFG=1
M  V30 1673 C  -23.8884 16.2793 -44.3192 0
M  V30 1674 O  -26.0784 16.6037 -43.4914 0
M  V30 1675 N  -23.0439 13.2870 -42.0709 0
M  V30 1676 C  -21.7159 12.7841 -41.7548 0 CFG=2
M  V30 1677 C  -20.6843 13.3773 -42.7283 0
M  V30 1678 O  -20.9781 13.5025 -43.9187 0
M  V30 1679 C  -21.7605 11.2474 -41.8132 0
M  V30 1680 O  -20.5058 10.6605 -41.5459 0
M  V30 1681 N  -19.5026 13.7226 -42.1997 0
M  V30 1682 C  -18.4099 14.3234 -42.9592 0 CFG=2
M  V30 1683 C  -17.1145 13.5289 -42.7858 0
M  V30 1684 O  -16.9003 12.8936 -41.7522 0
M  V30 1685 C  -18.2393 15.7945 -42.5363 0
M  V30 1686 C  -19.3694 16.6878 -42.9872 0
M  V30 1687 C  -20.2143 17.5228 -42.2900 0
M  V30 1688 N  -19.7711 16.7747 -44.3101 0
M  V30 1689 C  -20.7879 17.6371 -44.3581 0
M  V30 1690 N  -21.1168 18.1258 -43.1691 0
M  V30 1691 N  -16.2805 13.5916 -43.8355 0
M  V30 1692 C  -15.0075 12.8897 -43.9548 0 CFG=2
M  V30 1693 C  -13.9795 13.3928 -42.9276 0
M  V30 1694 O  -13.6105 14.5680 -42.9543 0
M  V30 1695 C  -14.4023 13.0721 -45.3726 0 CFG=1
M  V30 1696 C  -13.1105 12.2735 -45.6309 0
M  V30 1697 O  -15.3571 12.6881 -46.3432 0
M  V30 1698 N  -13.5446 12.4825 -42.0458 0
M  V30 1699 C  -12.5346 12.7552 -41.0298 0 CFG=2
M  V30 1700 C  -11.1432 12.6120 -41.6632 0
M  V30 1701 O  -10.8107 11.5400 -42.1707 0
M  V30 1702 C  -12.6772 11.7838 -39.8281 0
M  V30 1703 C  -11.5904 11.9439 -38.7442 0
M  V30 1704 C  -14.0686 11.9490 -39.1994 0
M  V30 1705 N  -10.3786 13.7127 -41.6459 0
M  V30 1706 C  -9.0345 13.7897 -42.2152 0 CFG=2
M  V30 1707 C  -7.9688 13.2836 -41.2173 0
M  V30 1708 O  -8.2043 13.3468 -40.0086 0
M  V30 1709 C  -8.7491 15.2466 -42.6376 0
M  V30 1710 C  -9.6482 15.7526 -43.7809 0
M  V30 1711 S  -9.4976 14.8594 -45.3566 0
M  V30 1712 C  -7.8403 15.3798 -45.8759 0
M  V30 1713 N  -6.8027 12.8110 -41.7198 0
M  V30 1714 C  -5.6509 12.4783 -40.8594 0 CFG=2
M  V30 1715 C  -5.0564 13.6987 -40.1339 0
M  V30 1716 O  -4.9275 14.7642 -40.7383 0
M  V30 1717 C  -4.6262 11.8479 -41.8213 0
M  V30 1718 C  -5.4236 11.4452 -43.0473 0
M  V30 1719 C  -6.4992 12.5166 -43.1214 0
M  V30 1720 N  -4.6968 13.5000 -38.8583 0
M  V30 1721 C  -4.0073 14.4826 -38.0253 0 CFG=2
M  V30 1722 C  -2.4876 14.2823 -38.1278 0
M  V30 1723 O  -2.0232 13.1409 -38.1401 0
M  V30 1724 C  -4.4615 14.3045 -36.5652 0
M  V30 1725 C  -5.9481 14.6236 -36.2936 0
M  V30 1726 C  -6.2807 14.3118 -34.8250 0
M  V30 1727 C  -6.3651 16.0548 -36.6944 0
M  V30 1728 N  -1.7506 15.4032 -38.1781 0
M  V30 1729 C  -0.2981 15.4373 -38.3594 0 CFG=2
M  V30 1730 C  0.4020 16.2173 -37.2337 0
M  V30 1731 O  1.3103 15.6697 -36.6087 0
M  V30 1732 C  0.0232 15.9662 -39.7759 0
M  V30 1733 O  -0.3678 17.3152 -39.9640 0
M  V30 1734 N  -0.0338 17.4636 -36.9822 0
M  V30 1735 C  0.5025 18.3367 -35.9363 0 CFG=2
M  V30 1736 C  -0.0147 17.9196 -34.5467 0
M  V30 1737 O  -1.1428 17.4406 -34.4626 0
M  V30 1738 C  0.0613 19.7720 -36.2483 0
M  V30 1739 N  0.7830 18.1251 -33.4749 0
M  V30 1740 C  0.3438 17.8070 -32.1033 0 CFG=2
M  V30 1741 C  -0.7948 18.7250 -31.6138 0
M  V30 1742 O  -0.9736 19.8189 -32.1478 0
M  V30 1743 C  1.6286 17.9946 -31.2839 0
M  V30 1744 C  2.3950 19.0818 -32.0199 0
M  V30 1745 C  2.1069 18.7544 -33.4815 0
M  V30 1746 N  -1.5341 18.2612 -30.5951 0
M  V30 1747 C  -2.5772 19.0150 -29.8875 0 CFG=2
M  V30 1748 C  -2.0297 20.2856 -29.1928 0
M  V30 1749 O  -2.7061 21.3113 -29.1763 0
M  V30 1750 C  -3.2683 18.1342 -28.8096 0 CFG=1
M  V30 1751 C  -3.8201 16.8111 -29.3555 0
M  V30 1752 O  -2.4128 17.8326 -27.7219 0
M  V30 1753 N  -0.7872 20.2153 -28.6982 0
M  V30 1754 C  -0.0285 21.3528 -28.2018 0 CFG=2
M  V30 1755 C  1.3709 21.2690 -28.8036 0
M  V30 1756 O  1.9996 20.2116 -28.7446 0
M  V30 1757 C  0.0507 21.3078 -26.6597 0
M  V30 1758 C  -1.2221 21.7947 -25.9399 0
M  V30 1759 C  -1.1415 21.4629 -24.4468 0
M  V30 1760 C  -1.4767 23.3009 -26.1541 0
M  V30 1761 N  1.8609 22.4157 -29.2979 0
M  V30 1762 C  3.2729 22.6321 -29.6188 0 CFG=2
M  V30 1763 C  4.1256 22.5550 -28.3252 0
M  V30 1764 O  3.5883 22.8336 -27.2508 0
M  V30 1765 C  3.4736 24.0337 -30.2749 0
M  V30 1766 C  2.6864 24.1565 -31.5911 0
M  V30 1767 C  3.1898 25.2443 -29.3599 0
M  V30 1768 N  5.4233 22.1830 -28.4213 0
M  V30 1769 C  6.3216 22.1942 -27.2504 0 CFG=2
M  V30 1770 C  6.4716 23.6082 -26.6611 0
M  V30 1771 O  6.7487 24.5481 -27.4077 0
M  V30 1772 C  7.6467 21.6365 -27.7964 0
M  V30 1773 C  7.6095 21.9291 -29.2878 0
M  V30 1774 C  6.1335 21.7696 -29.6328 0
M  V30 1775 N  6.2158 23.7298 -25.3473 0
M  V30 1776 C  6.2556 24.9976 -24.6208 0 CFG=2
M  V30 1777 C  7.6768 25.5758 -24.5955 0
M  V30 1778 O  8.6232 24.8584 -24.2703 0
M  V30 1779 C  5.7185 24.7888 -23.1848 0
M  V30 1780 C  5.6152 26.0507 -22.2967 0
M  V30 1781 C  4.6050 27.0906 -22.7922 0
M  V30 1782 N  3.5093 27.2632 -22.0528 0
M  V30 1783 O  4.8111 27.7437 -23.8132 0
M  V30 1784 N  7.7714 26.8716 -24.9091 0
M  V30 1785 C  8.9890 27.6637 -24.7915 0 CFG=2
M  V30 1786 C  8.6379 28.8323 -23.8681 0
M  V30 1787 O  7.5702 29.4207 -24.0241 0
M  V30 1788 C  9.4623 28.1671 -26.1799 0
M  V30 1789 C  9.4201 27.1017 -27.3071 0
M  V30 1790 C  9.8033 27.5788 -28.7192 0
M  V30 1791 O  9.7226 26.7292 -29.6329 0
M  V30 1792 O  10.1452 28.7689 -28.8966 0 CHG=-1
M  V30 1793 N  9.5403 29.1531 -22.9350 0
M  V30 1794 C  9.4397 30.3314 -22.0791 0 CFG=2
M  V30 1795 C  10.5812 31.2811 -22.4433 0
M  V30 1796 O  11.7199 30.8385 -22.6023 0
M  V30 1797 C  9.4820 29.9210 -20.5962 0
M  V30 1798 C  8.1812 29.3436 -20.0963 0
M  V30 1799 C  7.0700 30.0207 -19.6365 0
M  V30 1800 N  7.9248 27.9692 -20.0414 0
M  V30 1801 C  6.6937 27.8734 -19.5554 0
M  V30 1802 N  6.1339 29.0573 -19.3078 0
M  V30 1803 N  10.2343 32.5670 -22.5840 0
M  V30 1804 C  11.1381 33.6272 -23.0175 0 CFG=2
M  V30 1805 C  11.3544 34.6215 -21.8708 0
M  V30 1806 O  10.4577 34.8352 -21.0531 0
M  V30 1807 C  10.5336 34.3604 -24.2341 0
M  V30 1808 C  9.9929 33.4807 -25.3502 0
M  V30 1809 C  10.8004 32.4861 -25.9408 0
M  V30 1810 C  8.6681 33.6574 -25.8008 0
M  V30 1811 C  10.2793 31.6675 -26.9612 0
M  V30 1812 C  8.1465 32.8340 -26.8137 0
M  V30 1813 C  8.9500 31.8414 -27.3952 0
M  V30 1814 O  8.4298 31.0551 -28.3779 0
M  V30 1815 N  12.5426 35.2402 -21.8702 0
M  V30 1816 C  12.9502 36.2666 -20.9096 0 CFG=2
M  V30 1817 C  12.5050 37.6954 -21.3244 0
M  V30 1818 O  12.5643 38.6045 -20.4980 0
M  V30 1819 C  14.4924 36.1927 -20.7053 0
M  V30 1820 C  15.3116 36.6207 -21.9383 0
M  V30 1821 C  14.9843 36.9337 -19.4486 0
M  V30 1822 N  12.0307 37.8616 -22.5723 0
M  V30 1823 C  11.4556 39.0937 -23.1227 0 CFG=2
M  V30 1824 C  10.2307 38.7537 -23.9810 0
M  V30 1825 O  10.0674 37.6091 -24.4103 0
M  V30 1826 C  12.4937 39.8078 -24.0158 0
M  V30 1827 C  13.6250 40.5138 -23.2491 0
M  V30 1828 C  14.7460 41.0341 -24.1674 0
M  V30 1829 N  15.5535 39.9300 -24.7191 0
M  V30 1830 C  16.5914 39.3129 -24.1236 0
M  V30 1831 N  17.0881 39.7228 -22.9455 0
M  V30 1832 N  17.1428 38.2520 -24.7259 0 CHG=1
M  V30 1833 N  9.4166 39.7879 -24.2577 0
M  V30 1834 C  8.3447 39.7517 -25.2529 0 CFG=2
M  V30 1835 C  8.9493 39.5410 -26.6575 0
M  V30 1836 O  9.7688 40.3498 -27.0951 0
M  V30 1837 C  7.4828 41.0465 -25.2279 0 CFG=2
M  V30 1838 C  6.7271 41.1810 -23.8851 0
M  V30 1839 C  6.4806 41.1624 -26.3966 0
M  V30 1840 C  6.1402 42.5798 -23.6458 0
M  V30 1841 N  8.5722 38.4232 -27.2932 0
M  V30 1842 C  9.2343 37.8980 -28.4848 0 CFG=2
M  V30 1843 C  8.3761 38.1489 -29.7346 0
M  V30 1844 O  7.2779 37.6067 -29.8392 0
M  V30 1845 C  9.4621 36.3713 -28.3163 0 CFG=1
M  V30 1846 C  9.9999 35.6229 -29.5505 0
M  V30 1847 O  10.3913 36.1875 -27.2660 0
M  V30 1848 N  8.9062 38.9574 -30.6677 0
M  V30 1849 C  8.3248 39.2154 -31.9898 0
M  V30 1850 C  7.0040 40.0097 -31.9786 0
M  V30 1851 O  6.4086 40.1815 -33.0412 0
M  V30 1852 N  6.5595 40.4945 -30.8096 0
M  V30 1853 C  5.4200 41.3896 -30.6389 0 CFG=2
M  V30 1854 C  5.9550 42.7284 -30.1146 0
M  V30 1855 O  6.9079 42.7399 -29.3341 0
M  V30 1856 C  4.4279 40.7874 -29.6227 0
M  V30 1857 C  3.7612 39.4448 -29.9816 0
M  V30 1858 C  2.9002 38.9520 -28.8062 0
M  V30 1859 C  2.9170 39.5105 -31.2611 0
M  V30 1860 N  5.3369 43.8323 -30.5567 0
M  V30 1861 C  5.7980 45.1890 -30.2621 0 CFG=2
M  V30 1862 C  4.6628 45.9435 -29.5559 0
M  V30 1863 O  3.6995 46.3155 -30.2287 0
M  V30 1864 C  6.2484 45.8564 -31.5760 0
M  V30 1865 C  7.4334 45.1345 -32.1943 0
M  V30 1866 C  8.7102 45.2497 -31.6047 0
M  V30 1867 C  7.2485 44.2772 -33.2992 0
M  V30 1868 C  9.7903 44.4967 -32.1028 0
M  V30 1869 C  8.3298 43.5266 -33.7993 0
M  V30 1870 C  9.5994 43.6312 -33.1970 0
M  V30 1871 O  10.6447 42.8927 -33.6689 0
M  V30 1872 N  4.7511 46.0910 -28.2101 0
M  V30 1873 C  3.6554 46.6639 -27.4162 0 CFG=2
M  V30 1874 C  3.4710 48.1760 -27.6233 0
M  V30 1875 O  4.4465 48.8905 -27.8571 0
M  V30 1876 C  4.0225 46.3140 -25.9667 0
M  V30 1877 C  5.5355 46.2223 -25.9643 0
M  V30 1878 C  5.8506 45.6528 -27.3422 0
M  V30 1879 N  2.2097 48.6210 -27.5223 0
M  V30 1880 C  1.8037 50.0239 -27.5873 0 CFG=2
M  V30 1881 C  2.3508 50.8403 -26.3939 0
M  V30 1882 O  2.4673 50.3025 -25.2907 0
M  V30 1883 C  0.2505 50.1402 -27.6123 0 CFG=1
M  V30 1884 C  -0.4718 49.7128 -26.3183 0
M  V30 1885 O  -0.1394 51.4736 -27.8810 0
M  V30 1886 N  2.6423 52.1295 -26.6315 0
M  V30 1887 C  2.9799 53.0857 -25.5725 0 CFG=2
M  V30 1888 C  1.7320 53.6330 -24.8591 0
M  V30 1889 O  1.8367 53.9943 -23.6879 0
M  V30 1890 C  3.8088 54.2522 -26.1582 0
M  V30 1891 C  5.2869 53.9040 -26.4388 0
M  V30 1892 C  5.9918 55.0563 -27.1861 0
M  V30 1893 C  6.0466 53.4990 -25.1556 0
M  V30 1894 N  0.5942 53.6952 -25.5711 0
M  V30 1895 C  -0.6511 54.2940 -25.0946 0 CFG=2
M  V30 1896 C  -1.7672 53.2512 -25.2393 0
M  V30 1897 O  -2.1890 52.9726 -26.3624 0
M  V30 1898 C  -0.9983 55.5689 -25.9103 0
M  V30 1899 C  0.1317 56.6020 -25.9823 0
M  V30 1900 N  0.7218 56.7718 -27.1678 0
M  V30 1901 O  0.4667 57.2401 -24.9881 0
M  V30 1902 N  -2.2256 52.6977 -24.1075 0
M  V30 1903 C  -3.3780 51.7974 -24.0435 0 CFG=2
M  V30 1904 C  -4.5183 52.5074 -23.2906 0
M  V30 1905 O  -4.2620 53.2872 -22.3705 0
M  V30 1906 C  -3.0093 50.4559 -23.3285 0 CFG=2
M  V30 1907 C  -4.0811 49.3438 -23.4565 0
M  V30 1908 C  -2.6226 50.6165 -21.8421 0
M  V30 1909 C  -4.4790 48.9782 -24.8956 0
M  V30 1910 N  -5.7614 52.2092 -23.6991 0
M  V30 1911 C  -6.9846 52.6322 -23.0178 0 CFG=2
M  V30 1912 C  -7.0986 51.9829 -21.6232 0
M  V30 1913 O  -6.6999 50.8282 -21.4548 0
M  V30 1914 C  -8.1821 52.2888 -23.9307 0
M  V30 1915 O  -9.4198 52.5329 -23.2969 0
M  V30 1916 N  -7.6791 52.7235 -20.6608 0
M  V30 1917 C  -7.9321 52.2528 -19.2904 0 CFG=2
M  V30 1918 C  -8.9324 51.0777 -19.2091 0
M  V30 1919 O  -8.9293 50.3686 -18.2031 0
M  V30 1920 C  -8.3028 53.3795 -18.2900 0
M  V30 1921 C  -9.6063 54.1728 -18.5117 0
M  V30 1922 O  -10.1873 54.1156 -19.6186 0
M  V30 1923 O  -9.9610 54.9099 -17.5659 0 CHG=-1
M  V30 1924 N  -9.7147 50.8595 -20.2821 0
M  V30 1925 C  -10.5699 49.6931 -20.5032 0 CFG=2
M  V30 1926 C  -9.8007 48.3575 -20.4889 0
M  V30 1927 O  -10.3594 47.3609 -20.0352 0
M  V30 1928 C  -11.2965 49.8421 -21.8566 0
M  V30 1929 C  -12.2052 51.0814 -21.9731 0
M  V30 1930 C  -12.8501 51.1642 -23.3616 0
M  V30 1931 O  -12.2492 51.8203 -24.2421 0
M  V30 1932 O  -13.9290 50.5517 -23.5286 0 CHG=-1
M  V30 1933 N  -8.5513 48.3634 -20.9860 0
M  V30 1934 C  -7.7139 47.1726 -21.1599 0 CFG=2
M  V30 1935 C  -6.4843 47.1643 -20.2351 0
M  V30 1936 O  -5.7073 46.2114 -20.3076 0
M  V30 1937 C  -7.2784 47.0734 -22.6358 0
M  V30 1938 C  -8.4278 47.0394 -23.6226 0
M  V30 1939 C  -9.2244 45.8845 -23.7533 0
M  V30 1940 C  -8.8103 48.2154 -24.2976 0
M  V30 1941 C  -10.3147 45.8925 -24.6122 0
M  V30 1942 C  -9.9235 48.2131 -25.1257 0
M  V30 1943 C  -10.6583 47.0485 -25.2960 0
M  V30 1944 N  -6.3273 48.1928 -19.3788 0
M  V30 1945 C  -5.2207 48.3303 -18.4235 0 CFG=2
M  V30 1946 C  -5.1218 47.1991 -17.3781 0
M  V30 1947 O  -4.0124 46.8995 -16.9375 0
M  V30 1948 C  -5.2521 49.7298 -17.7792 0
M  V30 1949 O  -6.3264 49.8939 -16.8720 0
M  V30 1950 N  -6.2599 46.5593 -17.0496 0
M  V30 1951 C  -6.3542 45.3928 -16.1660 0 CFG=2
M  V30 1952 C  -5.6413 44.1321 -16.6979 0
M  V30 1953 O  -5.2661 43.2788 -15.8954 0
M  V30 1954 C  -7.8459 45.1183 -15.8685 0
M  V30 1955 O  -8.5415 44.5966 -16.9883 0
M  V30 1956 N  -5.4843 44.0391 -18.0277 0
M  V30 1957 C  -4.9593 42.8686 -18.7284 0 CFG=2
M  V30 1958 C  -3.5322 43.0877 -19.2593 0
M  V30 1959 O  -3.0265 42.1741 -19.9029 0
M  V30 1960 C  -5.9104 42.5177 -19.8962 0
M  V30 1961 C  -7.3368 42.1482 -19.4796 0
M  V30 1962 N  -8.3167 42.5040 -20.3122 0
M  V30 1963 O  -7.5539 41.5283 -18.4407 0
M  V30 1964 N  -2.8950 44.2475 -19.0044 0
M  V30 1965 C  -1.5499 44.5778 -19.5034 0 CFG=2
M  V30 1966 C  -0.4475 43.6018 -19.0421 0
M  V30 1967 O  0.3597 43.1958 -19.8756 0
M  V30 1968 C  -1.1530 46.0477 -19.1715 0
M  V30 1969 C  0.3511 46.3932 -19.2752 0
M  V30 1970 C  -1.9521 47.0147 -20.0593 0
M  V30 1971 N  -0.4643 43.1987 -17.7589 0
M  V30 1972 C  0.4547 42.1981 -17.2043 0 CFG=2
M  V30 1973 C  0.2760 40.7996 -17.8236 0
M  V30 1974 O  1.2686 40.1057 -18.0422 0
M  V30 1975 C  0.2799 42.1401 -15.6797 0
M  V30 1976 N  -0.9801 40.4341 -18.1298 0
M  V30 1977 C  -1.3406 39.1867 -18.8025 0 CFG=2
M  V30 1978 C  -1.0031 39.2118 -20.3065 0
M  V30 1979 O  -0.5861 38.1770 -20.8188 0
M  V30 1980 C  -2.8386 38.8948 -18.5701 0
M  V30 1981 C  -3.2695 38.5025 -17.1496 0
M  V30 1982 N  -2.3452 38.0817 -16.2821 0
M  V30 1983 O  -4.4580 38.5551 -16.8440 0
M  V30 1984 N  -1.1285 40.3676 -20.9855 0
M  V30 1985 C  -0.7034 40.5416 -22.3810 0 CFG=2
M  V30 1986 C  0.8209 40.4506 -22.5410 0
M  V30 1987 O  1.2782 39.8886 -23.5329 0
M  V30 1988 C  -1.2020 41.8793 -22.9662 0
M  V30 1989 C  -2.7021 42.1098 -23.0410 0
M  V30 1990 C  -3.6064 41.0418 -23.2271 0
M  V30 1991 C  -3.1974 43.4268 -22.9469 0
M  V30 1992 C  -4.9871 41.2911 -23.3049 0
M  V30 1993 C  -4.5782 43.6774 -23.0315 0
M  V30 1994 C  -5.4745 42.6075 -23.2057 0
M  V30 1995 O  -6.8148 42.8443 -23.2621 0
M  V30 1996 N  1.5813 40.9521 -21.5541 0
M  V30 1997 C  3.0316 40.7766 -21.4819 0 CFG=2
M  V30 1998 C  3.4462 39.3131 -21.2516 0
M  V30 1999 O  4.4259 38.8804 -21.8564 0
M  V30 2000 C  3.6300 41.7156 -20.4222 0
M  V30 2001 C  3.5904 43.1974 -20.8463 0
M  V30 2002 C  4.2548 44.1324 -19.8342 0
M  V30 2003 N  4.4350 45.3953 -20.2189 0
M  V30 2004 O  4.5985 43.7361 -18.7231 0
M  V30 2005 N  2.6613 38.5662 -20.4502 0
M  V30 2006 C  2.8295 37.1257 -20.2441 0 CFG=2
M  V30 2007 C  2.5755 36.2987 -21.5193 0
M  V30 2008 O  3.3251 35.3533 -21.7496 0
M  V30 2009 C  1.9909 36.6505 -19.0367 0
M  V30 2010 C  2.1350 35.1472 -18.7214 0
M  V30 2011 C  1.5480 34.7489 -17.3527 0
M  V30 2012 C  2.5374 33.9987 -16.4395 0
M  V30 2013 N  2.8737 32.6510 -16.9379 0 CHG=1
M  V30 2014 N  1.5910 36.6998 -22.3489 0
M  V30 2015 C  1.3238 36.1276 -23.6783 0 CFG=2
M  V30 2016 C  2.5409 36.2226 -24.6255 0
M  V30 2017 O  2.7972 35.2698 -25.3591 0
M  V30 2018 C  0.0837 36.7951 -24.3620 0
M  V30 2019 C  -0.0302 36.6190 -25.8940 0
M  V30 2020 C  -1.2346 36.3723 -23.6938 0
M  V30 2021 N  3.2744 37.3476 -24.5667 0
M  V30 2022 C  4.4651 37.5928 -25.3769 0
M  V30 2023 C  5.7159 36.8744 -24.8400 0
M  V30 2024 O  6.6819 36.7326 -25.5887 0
M  V30 2025 N  5.7079 36.4272 -23.5721 0
M  V30 2026 C  6.8469 35.8168 -22.8788 0 CFG=2
M  V30 2027 C  6.7931 34.2782 -22.8123 0
M  V30 2028 O  7.5760 33.6913 -22.0658 0
M  V30 2029 C  6.9998 36.4663 -21.4877 0
M  V30 2030 C  7.5994 37.8762 -21.5763 0
M  V30 2031 S  7.8456 38.7270 -19.9986 0
M  V30 2032 C  9.1644 37.7020 -19.2927 0
M  V30 2033 N  5.9389 33.6393 -23.6283 0
M  V30 2034 C  5.9164 32.1854 -23.8061 0 CFG=2
M  V30 2035 C  5.2030 31.7917 -25.1071 0
M  V30 2036 O  4.3777 32.5551 -25.6091 0
M  V30 2037 C  5.3532 31.4710 -22.5544 0
M  V30 2038 C  3.9474 31.9267 -22.1312 0
M  V30 2039 C  3.5820 31.4134 -20.7411 0
M  V30 2040 N  2.7190 30.4022 -20.6799 0
M  V30 2041 O  4.0687 31.9259 -19.7353 0
M  V30 2042 N  5.5632 30.6069 -25.6339 0
M  V30 2043 C  5.0964 30.0438 -26.9058 0 CFG=2
M  V30 2044 C  3.5817 29.8384 -26.9559 0
M  V30 2045 O  2.9715 30.1180 -27.9840 0
M  V30 2046 C  5.8140 28.7044 -27.1759 0
M  V30 2047 C  5.5507 28.0634 -28.5530 0
M  V30 2048 C  6.1354 28.8868 -29.7086 0
M  V30 2049 C  5.9382 28.2311 -31.0788 0
M  V30 2050 N  6.6015 29.0079 -32.1399 0 CHG=1
M  V30 2051 N  3.0067 29.3771 -25.8398 0
M  V30 2052 C  1.5687 29.3465 -25.6599 0 CFG=2
M  V30 2053 C  1.2185 29.6465 -24.2064 0
M  V30 2054 O  2.0179 29.3935 -23.3079 0
M  V30 2055 C  0.9643 28.0250 -26.1829 0
M  V30 2056 C  1.2409 26.7811 -25.3619 0
M  V30 2057 C  0.4066 26.4356 -24.2768 0
M  V30 2058 C  2.3413 25.9662 -25.6880 0
M  V30 2059 C  0.6914 25.2946 -23.5042 0
M  V30 2060 C  2.6116 24.8172 -24.9267 0
M  V30 2061 C  1.7973 24.4855 -23.8293 0
M  V30 2062 O  2.0905 23.3849 -23.0806 0
M  V30 2063 N  0.0084 30.1758 -24.0142 0
M  V30 2064 C  -0.5099 30.5812 -22.7184 0 CFG=2
M  V30 2065 C  -2.0050 30.2571 -22.6352 0
M  V30 2066 O  -2.6893 30.2021 -23.6568 0
M  V30 2067 C  -0.1569 32.0634 -22.4842 0
M  V30 2068 O  -0.8456 32.9094 -23.3803 0
M  V30 2069 N  -2.4653 30.0098 -21.4053 0
M  V30 2070 C  -3.8115 29.5435 -21.1070 0 CFG=2
M  V30 2071 C  -4.5010 30.5720 -20.1877 0
M  V30 2072 O  -3.9803 30.8992 -19.1208 0
M  V30 2073 C  -3.7555 28.1396 -20.4398 0 CFG=1
M  V30 2074 C  -3.1336 27.0675 -21.3488 0
M  V30 2075 O  -3.0489 28.1286 -19.2197 0
M  V30 2076 N  -5.6575 31.0788 -20.6487 0
M  V30 2077 C  -6.5267 31.9973 -19.9168 0 CFG=2
M  V30 2078 C  -7.7659 31.2189 -19.4625 0
M  V30 2079 O  -8.5787 30.8400 -20.3072 0
M  V30 2080 C  -6.9342 33.1954 -20.8169 0
M  V30 2081 C  -7.7921 34.2762 -20.1062 0
M  V30 2082 C  -6.9685 35.0402 -19.0560 0
M  V30 2083 C  -8.4409 35.2474 -21.1104 0
M  V30 2084 N  -7.9159 31.0434 -18.1413 0
M  V30 2085 C  -9.1836 30.6321 -17.5476 0 CFG=2
M  V30 2086 C  -9.9957 31.8931 -17.2269 0
M  V30 2087 O  -9.6008 32.6715 -16.3612 0
M  V30 2088 C  -8.9539 29.7287 -16.3221 0
M  V30 2089 C  -10.2659 29.3609 -15.5907 0
M  V30 2090 C  -10.1096 28.2985 -14.4993 0
M  V30 2091 N  -11.1998 27.6005 -14.1811 0
M  V30 2092 O  -9.0416 28.1283 -13.9192 0
M  V30 2093 N  -11.1148 32.0634 -17.9353 0
M  V30 2094 C  -12.0344 33.1656 -17.7278 0
M  V30 2095 C  -13.3680 32.5590 -17.2949 0
M  V30 2096 O  -14.0998 32.0792 -18.1587 0
M  V30 2097 N  -13.7383 32.6181 -15.9968 0
M  V30 2098 C  -15.1154 32.3586 -15.5338 0 CFG=2
M  V30 2099 C  -16.2138 33.1951 -16.2467 0
M  V30 2100 O  -15.8897 34.1480 -16.9584 0
M  V30 2101 C  -15.0476 32.6304 -14.0200 0
M  V30 2102 C  -13.5849 32.4569 -13.6468 0
M  V30 2103 C  -12.8440 32.9272 -14.8875 0
M  V30 2104 N  -17.5017 32.8443 -16.0415 0
M  V30 2105 C  -18.6567 33.6167 -16.5435 0 CFG=2
M  V30 2106 C  -18.6105 35.1215 -16.2185 0
M  V30 2107 O  -18.4265 35.4745 -15.0578 0
M  V30 2108 C  -19.8426 32.9242 -15.8558 0
M  V30 2109 C  -19.4010 31.4806 -15.7186 0
M  V30 2110 C  -17.9354 31.6209 -15.3738 0
M  V30 2111 N  -18.7414 35.9689 -17.2532 0
M  V30 2112 C  -18.8558 37.4234 -17.1085 0
M  V30 2113 C  -17.5452 38.1482 -16.7470 0
M  V30 2114 O  -17.6129 39.3166 -16.3673 0
M  V30 2115 N  -16.3771 37.4872 -16.8397 0
M  V30 2116 C  -15.0791 38.0424 -16.4290 0 CFG=2
M  V30 2117 C  -14.2843 38.7438 -17.5594 0
M  V30 2118 O  -13.2552 39.3480 -17.2545 0
M  V30 2119 C  -14.1795 36.9502 -15.8018 0 CFG=1
M  V30 2120 C  -14.8237 36.2519 -14.6008 0
M  V30 2121 O  -13.7890 35.9825 -16.7573 0
M  V30 2122 N  -14.7804 38.7145 -18.8106 0
M  V30 2123 C  -14.2521 39.5359 -19.9051 0
M  V30 2124 C  -13.2392 38.7872 -20.7840 0
M  V30 2125 O  -12.1773 39.3357 -21.0733 0
M  V30 2126 N  -13.5665 37.5589 -21.2261 0
M  V30 2127 C  -12.7685 36.7594 -22.1703 0 CFG=2
M  V30 2128 C  -12.6286 37.3824 -23.5695 0
M  V30 2129 O  -11.5186 37.4287 -24.0962 0
M  V30 2130 C  -13.3808 35.3544 -22.3065 0
M  V30 2131 C  -13.0958 34.4469 -21.1057 0
M  V30 2132 C  -13.6584 33.0231 -21.2848 0
M  V30 2133 C  -15.1929 32.9104 -21.3754 0
M  V30 2134 N  -15.8836 33.4755 -20.2021 0 CHG=1
M  V30 2135 N  -13.7506 37.8433 -24.1460 0
M  V30 2136 C  -13.7864 38.5189 -25.4445 0 CFG=2
M  V30 2137 C  -13.1524 39.9221 -25.3991 0
M  V30 2138 O  -12.5101 40.3158 -26.3702 0
M  V30 2139 C  -15.2310 38.5069 -25.9820 0
M  V30 2140 O  -16.1256 39.1917 -25.1250 0
M  V30 2141 N  -13.2758 40.6140 -24.2524 0
M  V30 2142 C  -12.5960 41.8768 -23.9607 0 CFG=2
M  V30 2143 C  -11.0667 41.7173 -23.8807 0
M  V30 2144 O  -10.3517 42.5684 -24.4059 0
M  V30 2145 C  -13.1765 42.4601 -22.6595 0
M  V30 2146 C  -12.9006 43.9270 -22.4572 0
M  V30 2147 C  -11.9123 44.5201 -21.7011 0
M  V30 2148 N  -13.6823 44.9257 -23.0497 0
M  V30 2149 C  -13.1478 46.0657 -22.6313 0
M  V30 2150 N  -12.0996 45.8831 -21.8288 0
M  V30 2151 N  -10.5998 40.6094 -23.2763 0
M  V30 2152 C  -9.1939 40.2070 -23.2483 0 CFG=2
M  V30 2153 C  -8.6487 39.9552 -24.6628 0
M  V30 2154 O  -7.6296 40.5390 -25.0252 0
M  V30 2155 C  -9.0080 38.9751 -22.3332 0
M  V30 2156 C  -7.5815 38.4719 -22.1818 0
M  V30 2157 C  -6.9564 37.6972 -23.1865 0
M  V30 2158 C  -6.8232 38.8793 -21.0705 0
M  V30 2159 C  -5.6234 37.3303 -23.0573 0
M  V30 2160 C  -5.5015 38.4890 -20.9546 0
M  V30 2161 C  -4.8976 37.7206 -21.9406 0
M  V30 2162 N  -9.3544 39.0961 -25.4192 0
M  V30 2163 C  -9.0098 38.6543 -26.7691 0 CFG=2
M  V30 2164 C  -8.7796 39.8076 -27.7552 0
M  V30 2165 O  -7.7689 39.8072 -28.4535 0
M  V30 2166 C  -10.1214 37.7259 -27.2813 0
M  V30 2167 N  -9.7047 40.7774 -27.7712 0
M  V30 2168 C  -9.6604 41.9303 -28.6677 0 CFG=2
M  V30 2169 C  -8.7448 43.0628 -28.1590 0
M  V30 2170 O  -8.1669 43.7748 -28.9789 0
M  V30 2171 C  -11.0992 42.4593 -28.9277 0 CFG=2
M  V30 2172 C  -11.9935 41.3832 -29.5952 0
M  V30 2173 C  -11.1602 43.7656 -29.7388 0
M  V30 2174 C  -11.3596 40.5737 -30.7353 0
M  V30 2175 N  -8.5712 43.1834 -26.8335 0
M  V30 2176 C  -7.6551 44.1511 -26.2284 0
M  V30 2177 C  -6.1791 43.7660 -26.4139 0
M  V30 2178 O  -5.3138 44.6305 -26.2998 0
M  V30 2179 N  -5.8947 42.4878 -26.7156 0
M  V30 2180 C  -4.5762 41.9599 -27.0641 0 CFG=2
M  V30 2181 C  -4.0854 42.4870 -28.4293 0
M  V30 2182 O  -2.8878 42.7281 -28.5768 0
M  V30 2183 C  -4.6779 40.4201 -27.0155 0
M  V30 2184 C  -3.4188 39.5965 -27.3455 0
M  V30 2185 C  -2.3210 39.7389 -26.2764 0
M  V30 2186 C  -3.7989 38.1224 -27.5683 0
M  V30 2187 N  -5.0239 42.7089 -29.3705 0
M  V30 2188 C  -4.7901 43.3774 -30.6531 0 CFG=2
M  V30 2189 C  -4.5019 44.8781 -30.5172 0
M  V30 2190 O  -3.7296 45.3987 -31.3163 0
M  V30 2191 C  -5.9911 43.1566 -31.5861 0
M  V30 2192 N  -5.1026 45.5397 -29.5147 0
M  V30 2193 C  -4.8339 46.9426 -29.1918 0 CFG=2
M  V30 2194 C  -3.5065 47.1129 -28.4409 0
M  V30 2195 O  -2.8431 48.1322 -28.6338 0
M  V30 2196 C  -5.9959 47.5172 -28.3592 0
M  V30 2197 C  -7.3357 47.5925 -29.1205 0
M  V30 2198 C  -8.4794 47.9375 -28.1497 0
M  V30 2199 C  -7.2654 48.5672 -30.3156 0
M  V30 2200 N  -3.1377 46.1131 -27.6193 0
M  V30 2201 C  -1.8799 46.1047 -26.8846 0 CFG=2
M  V30 2202 C  -0.6726 45.8147 -27.7859 0
M  V30 2203 O  0.3743 46.4039 -27.5473 0
M  V30 2204 C  -1.9368 45.1470 -25.6813 0
M  V30 2205 C  -0.7511 45.3374 -24.7516 0
M  V30 2206 C  -0.6965 46.4858 -23.9364 0
M  V30 2207 C  0.3305 44.4324 -24.7595 0
M  V30 2208 C  0.4491 46.7511 -23.1659 0
M  V30 2209 C  1.4697 44.6857 -23.9716 0
M  V30 2210 C  1.5369 45.8583 -23.1938 0
M  V30 2211 O  2.6624 46.1483 -22.4831 0
M  V30 2212 N  -0.8482 44.9712 -28.8152 0
M  V30 2213 C  0.1500 44.6821 -29.8426 0 CFG=2
M  V30 2214 C  -0.4091 45.1400 -31.2060 0
M  V30 2215 O  -0.8967 44.2979 -31.9606 0
M  V30 2216 C  0.4970 43.1777 -29.8086 0
M  V30 2217 C  1.1440 42.6982 -28.5203 0
M  V30 2218 C  2.3707 43.2517 -28.1039 0
M  V30 2219 C  0.5434 41.6823 -27.7491 0
M  V30 2220 C  3.0183 42.7672 -26.9543 0
M  V30 2221 C  1.1909 41.1948 -26.5963 0
M  V30 2222 C  2.4362 41.7285 -26.2078 0
M  V30 2223 O  3.0854 41.2459 -25.1126 0
M  V30 2224 N  -0.3920 46.4687 -31.4836 0
M  V30 2225 C  -1.0998 47.0599 -32.6396 0 CFG=2
M  V30 2226 C  -0.5513 46.6991 -34.0309 0
M  V30 2227 O  -1.2915 46.8369 -35.0034 0
M  V30 2228 C  -1.0394 48.5722 -32.3732 0
M  V30 2229 C  0.2245 48.7599 -31.5536 0
M  V30 2230 C  0.2301 47.5195 -30.6739 0
M  V30 2231 N  0.7067 46.2387 -34.1025 0
M  V30 2232 C  1.3531 45.7641 -35.3255 0 CFG=2
M  V30 2233 C  1.1658 44.2528 -35.5650 0
M  V30 2234 O  1.4048 43.8063 -36.6871 0
M  V30 2235 C  2.8396 46.1695 -35.2694 0
M  V30 2236 O  3.5307 45.5196 -34.2189 0
M  V30 2237 N  0.7460 43.4984 -34.5316 0
M  V30 2238 C  0.5771 42.0494 -34.5889 0 CFG=2
M  V30 2239 C  -0.6227 41.6305 -35.4482 0
M  V30 2240 O  -1.7403 42.0932 -35.2142 0
M  V30 2241 C  0.4457 41.4803 -33.1689 0
M  V30 2242 N  -0.3560 40.7205 -36.3948 0
M  V30 2243 C  -1.3549 39.9561 -37.1312 0 CFG=2
M  V30 2244 C  -1.9134 38.8645 -36.2068 0
M  V30 2245 O  -1.1322 38.0316 -35.7437 0
M  V30 2246 C  -0.6862 39.3863 -38.4029 0
M  V30 2247 C  -1.4911 38.3070 -39.1444 0
M  V30 2248 C  -0.8239 37.8744 -40.4584 0
M  V30 2249 N  -1.4373 36.6432 -40.9799 0
M  V30 2250 C  -2.6353 36.4905 -41.5665 0
M  V30 2251 N  -3.4306 37.5255 -41.8412 0
M  V30 2252 N  -3.0563 35.2643 -41.8841 0 CHG=1
M  V30 2253 N  -3.2324 38.8957 -35.9487 0
M  V30 2254 C  -3.8771 37.9720 -35.0168 0 CFG=2
M  V30 2255 C  -5.0080 37.2005 -35.7090 0
M  V30 2256 O  -5.9486 37.8165 -36.2065 0
M  V30 2257 C  -4.4215 38.6609 -33.7291 0 CFG=2
M  V30 2258 C  -3.2969 39.4830 -33.0514 0
M  V30 2259 C  -5.0435 37.6357 -32.7463 0
M  V30 2260 C  -3.6552 40.0781 -31.6864 0
M  V30 2261 N  -4.9117 35.8609 -35.6833 0
M  V30 2262 C  -5.9683 34.9748 -36.1621 0 CFG=2
M  V30 2263 C  -6.8030 34.5051 -34.9559 0
M  V30 2264 O  -6.3046 33.7805 -34.0971 0
M  V30 2265 C  -5.4236 33.7355 -36.9261 0
M  V30 2266 C  -6.5521 32.7858 -37.3871 0
M  V30 2267 C  -4.5696 34.1383 -38.1442 0
M  V30 2268 N  -8.0675 34.9352 -34.9329 0
M  V30 2269 C  -9.0873 34.5454 -33.9708 0 CFG=2
M  V30 2270 C  -9.8169 33.3012 -34.4821 0
M  V30 2271 O  -10.2578 33.2809 -35.6319 0
M  V30 2272 C  -10.0621 35.7202 -33.7897 0
M  V30 2273 C  -9.4196 36.9198 -33.1264 0
M  V30 2274 C  -9.2804 36.9420 -31.7259 0
M  V30 2275 C  -8.9232 37.9899 -33.9007 0
M  V30 2276 C  -8.6313 38.0204 -31.1029 0
M  V30 2277 C  -8.2969 39.0832 -33.2725 0
M  V30 2278 C  -8.1466 39.0958 -31.8725 0
M  V30 2279 O  -7.5237 40.1436 -31.2635 0
M  V30 2280 N  -9.9389 32.2925 -33.6118 0
M  V30 2281 C  -10.5830 31.0295 -33.9356 0 CFG=2
M  V30 2282 C  -11.3470 30.4660 -32.7263 0
M  V30 2283 O  -11.1174 30.8818 -31.5930 0
M  V30 2284 C  -9.5602 30.0063 -34.5279 0 CFG=1
M  V30 2285 C  -8.5183 29.4642 -33.5313 0
M  V30 2286 O  -10.2163 28.8832 -35.0839 0
M  V30 2287 N  -12.2790 29.5549 -33.0212 0
M  V30 2288 C  -13.1446 28.8393 -32.0915 0 CFG=2
M  V30 2289 C  -13.9117 27.7844 -32.8969 0
M  V30 2290 O  -13.9948 27.8893 -34.1199 0
M  V30 2291 C  -14.1024 29.8013 -31.3678 0
M  V30 2292 N  -14.4358 26.7571 -32.2163 0
M  V30 2293 C  -15.0516 25.5998 -32.8743 0 CFG=2
M  V30 2294 C  -16.3760 25.9398 -33.5834 0
M  V30 2295 O  -16.5555 25.5375 -34.7332 0
M  V30 2296 C  -15.2384 24.4250 -31.9018 0
M  V30 2297 S  -13.6095 23.9164 -31.2930 0
M  V30 2298 N  -17.2568 26.6879 -32.8981 0
M  V30 2299 C  -18.5583 27.1111 -33.4137 0 CFG=2
M  V30 2300 C  -18.4654 28.4613 -34.1424 0
M  V30 2301 O  -17.6188 29.2901 -33.8017 0
M  V30 2302 C  -19.5651 27.1425 -32.2411 0
M  V30 2303 O  -19.3658 28.2364 -31.3667 0
M  V30 2304 N  -19.3864 28.6722 -35.0997 0
M  V30 2305 C  -19.5763 29.9541 -35.7829 0 CFG=2
M  V30 2306 C  -20.0195 31.0760 -34.8308 0
M  V30 2307 O  -19.5252 32.1878 -34.9826 0
M  V30 2308 C  -20.5503 29.8005 -36.9701 0
M  V30 2309 C  -19.9471 29.1285 -38.1798 0
M  V30 2310 C  -20.0423 27.8143 -38.5895 0
M  V30 2311 N  -19.1470 29.8216 -39.0941 0
M  V30 2312 C  -18.7999 28.9241 -40.0050 0
M  V30 2313 N  -19.3057 27.7164 -39.7582 0
M  V30 2314 N  -20.8703 30.7536 -33.8396 0
M  V30 2315 C  -21.3465 31.6755 -32.8047 0 CFG=2
M  V30 2316 C  -20.2303 32.2755 -31.9295 0
M  V30 2317 O  -20.2960 33.4633 -31.6178 0
M  V30 2318 C  -22.3835 30.9534 -31.9315 0
M  V30 2319 N  -19.2213 31.4595 -31.5773 0
M  V30 2320 C  -18.0501 31.8723 -30.8008 0 CFG=2
M  V30 2321 C  -17.1089 32.8069 -31.5775 0
M  V30 2322 O  -16.5798 33.7499 -30.9891 0
M  V30 2323 C  -17.3001 30.6197 -30.3379 0
M  V30 2324 N  -16.9483 32.5529 -32.8876 0
M  V30 2325 C  -16.1813 33.4065 -33.7947 0 CFG=2
M  V30 2326 C  -16.9165 34.7321 -34.0877 0
M  V30 2327 O  -16.2558 35.7668 -34.1399 0
M  V30 2328 C  -15.8534 32.6759 -35.1264 0
M  V30 2329 C  -15.1489 33.5487 -36.1836 0
M  V30 2330 C  -14.9855 31.4351 -34.8658 0
M  V30 2331 N  -18.2570 34.6920 -34.2118 0
M  V30 2332 C  -19.1292 35.8682 -34.3409 0 CFG=2
M  V30 2333 C  -19.1070 36.7693 -33.1005 0
M  V30 2334 O  -19.1409 37.9848 -33.2630 0
M  V30 2335 C  -20.6012 35.5289 -34.6939 0
M  V30 2336 C  -20.8235 34.7811 -36.0153 0
M  V30 2337 O  -19.9395 34.8611 -36.8954 0
M  V30 2338 O  -21.9379 34.2407 -36.1822 0 CHG=-1
M  V30 2339 N  -19.0102 36.1806 -31.8967 0
M  V30 2340 C  -18.8709 36.9155 -30.6380 0 CFG=2
M  V30 2341 C  -17.5469 37.6982 -30.5399 0
M  V30 2342 O  -17.5536 38.8126 -30.0159 0
M  V30 2343 C  -19.0366 35.9470 -29.4589 0
M  V30 2344 N  -16.4579 37.1332 -31.0953 0
M  V30 2345 C  -15.1724 37.8156 -31.2718 0 CFG=2
M  V30 2346 C  -15.2336 38.9030 -32.3585 0
M  V30 2347 O  -14.5884 39.9346 -32.1848 0
M  V30 2348 C  -14.0618 36.7909 -31.5968 0
M  V30 2349 C  -13.6517 35.8993 -30.4057 0
M  V30 2350 C  -12.8163 34.6904 -30.8812 0
M  V30 2351 C  -12.9467 36.7071 -29.2932 0
M  V30 2352 N  -16.0206 38.6798 -33.4288 0
M  V30 2353 C  -16.2390 39.6446 -34.5103 0 CFG=2
M  V30 2354 C  -16.9906 40.8949 -34.0307 0
M  V30 2355 O  -16.5931 41.9927 -34.4050 0
M  V30 2356 C  -17.0121 39.0679 -35.7078 0
M  V30 2357 S  -16.1104 37.7601 -36.5621 0
M  V30 2358 N  -18.0421 40.7128 -33.2119 0
M  V30 2359 C  -18.8404 41.7935 -32.6249 0 CFG=2
M  V30 2360 C  -18.0461 42.6705 -31.6454 0
M  V30 2361 O  -18.2749 43.8793 -31.6031 0
M  V30 2362 C  -20.0886 41.2106 -31.9233 0
M  V30 2363 C  -21.1455 40.5845 -32.8647 0
M  V30 2364 C  -22.0173 41.5575 -33.6782 0
M  V30 2365 O  -21.8182 42.7902 -33.5889 0
M  V30 2366 O  -22.8844 41.0340 -34.4114 0 CHG=-1
M  V30 2367 N  -17.1127 42.0568 -30.8991 0
M  V30 2368 C  -16.2196 42.7722 -29.9946 0 CFG=2
M  V30 2369 C  -15.1153 43.5192 -30.7732 0
M  V30 2370 O  -14.8008 44.6537 -30.4202 0
M  V30 2371 C  -15.6515 41.7874 -28.9531 0
M  V30 2372 C  -15.1468 42.4879 -27.6765 0
M  V30 2373 C  -16.2315 42.5264 -26.5860 0
M  V30 2374 C  -15.9312 43.5090 -25.4464 0
M  V30 2375 N  -16.7309 43.2292 -24.2425 0 CHG=1
M  V30 2376 N  -14.5857 42.8974 -31.8433 0
M  V30 2377 C  -13.6040 43.4876 -32.7573 0 CFG=2
M  V30 2378 C  -14.1559 44.6500 -33.5928 0
M  V30 2379 O  -13.4081 45.5784 -33.8797 0
M  V30 2380 C  -13.0405 42.3998 -33.6747 0
M  V30 2381 N  -15.4548 44.6048 -33.9253 0
M  V30 2382 C  -16.1963 45.6581 -34.6191 0 CFG=2
M  V30 2383 C  -16.2317 46.9823 -33.8254 0
M  V30 2384 O  -16.2344 48.0481 -34.4396 0
M  V30 2385 C  -17.6132 45.1101 -34.9049 0
M  V30 2386 C  -18.5298 45.9735 -35.7943 0
M  V30 2387 C  -17.9961 46.1085 -37.2339 0
M  V30 2388 C  -19.9620 45.4111 -35.7732 0
M  V30 2389 N  -16.2271 46.8821 -32.4837 0
M  V30 2390 C  -16.2453 48.0100 -31.5551 0 CFG=2
M  V30 2391 C  -14.8682 48.6803 -31.3584 0
M  V30 2392 O  -14.8471 49.8908 -31.1361 0
M  V30 2393 C  -16.8566 47.5252 -30.2193 0
M  V30 2394 C  -16.9891 48.6007 -29.1248 0
M  V30 2395 C  -17.6408 48.0605 -27.8459 0
M  V30 2396 C  -17.7161 49.1256 -26.7407 0
M  V30 2397 N  -18.1513 48.5508 -25.4560 0 CHG=1
M  V30 2398 N  -13.7647 47.9085 -31.4063 0
M  V30 2399 C  -12.4353 48.3780 -30.9836 0 CFG=2
M  V30 2400 C  -11.3715 48.3988 -32.0884 0
M  V30 2401 O  -10.4938 49.2598 -32.0287 0
M  V30 2402 C  -11.9347 47.5032 -29.8208 0
M  V30 2403 C  -12.7256 47.6532 -28.5374 0
M  V30 2404 C  -13.4674 46.5703 -28.0265 0
M  V30 2405 C  -12.7171 48.8822 -27.8459 0
M  V30 2406 C  -14.2032 46.7217 -26.8381 0
M  V30 2407 C  -13.4553 49.0310 -26.6577 0
M  V30 2408 C  -14.1989 47.9489 -26.1500 0
M  V30 2409 O  -14.9002 48.0852 -24.9878 0
M  V30 2410 N  -11.4286 47.4586 -33.0436 0
M  V30 2411 C  -10.4265 47.3102 -34.1028 0 CFG=2
M  V30 2412 C  -10.9450 47.9625 -35.3995 0
M  V30 2413 O  -12.1548 47.9144 -35.6353 0
M  V30 2414 C  -10.1341 45.8108 -34.3509 0
M  V30 2415 C  -9.7483 44.9907 -33.1005 0
M  V30 2416 C  -9.4566 43.5211 -33.4621 0
M  V30 2417 C  -8.5917 45.6102 -32.2983 0
M  V30 2418 N  -10.0380 48.5198 -36.2417 0
M  V30 2419 C  -10.3869 48.9825 -37.6013 0 CFG=2
M  V30 2420 C  -11.0416 47.8855 -38.4599 0
M  V30 2421 O  -10.4521 46.8191 -38.6376 0
M  V30 2422 C  -9.0462 49.4506 -38.1996 0
M  V30 2423 C  -8.1679 49.7543 -37.0014 0
M  V30 2424 C  -8.6115 48.7227 -35.9751 0
M  V30 2425 N  -12.2642 48.1651 -38.9381 0
M  V30 2426 C  -13.0884 47.2552 -39.7408 0 CFG=2
M  V30 2427 C  -12.4424 46.8534 -41.0890 0
M  V30 2428 O  -12.6519 45.7301 -41.5474 0
M  V30 2429 C  -14.4957 47.8784 -39.9885 0 CFG=2
M  V30 2430 C  -15.5040 46.8639 -40.5708 0
M  V30 2431 C  -14.4704 49.1756 -40.8274 0
M  V30 2432 C  -16.9702 47.3147 -40.5007 0
M  V30 2433 N  -11.6257 47.7573 -41.6578 0
M  V30 2434 C  -10.8247 47.5592 -42.8682 0 CFG=2
M  V30 2435 C  -9.6336 46.6006 -42.6560 0
M  V30 2436 O  -9.1307 46.0772 -43.6454 0
M  V30 2437 C  -10.3455 48.8993 -43.4893 0
M  V30 2438 C  -9.5594 49.8313 -42.5476 0
M  V30 2439 O  -10.1953 50.4148 -41.6410 0
M  V30 2440 O  -8.3150 49.8563 -42.6756 0 CHG=-1
M  V30 2441 N  -9.2183 46.3720 -41.3980 0
M  V30 2442 C  -8.1815 45.4087 -41.0163 0 CFG=2
M  V30 2443 C  -8.7519 44.0540 -40.5701 0
M  V30 2444 O  -7.9664 43.1919 -40.1821 0
M  V30 2445 C  -7.2857 46.0246 -39.9168 0
M  V30 2446 C  -6.3974 47.1782 -40.4070 0
M  V30 2447 C  -5.3019 46.7359 -41.4004 0
M  V30 2448 C  -4.4280 47.8921 -41.9085 0
M  V30 2449 N  -5.1683 48.7937 -42.8115 0 CHG=1
M  V30 2450 N  -10.0779 43.8698 -40.6542 0
M  V30 2451 C  -10.7675 42.6598 -40.2207 0 CFG=2
M  V30 2452 C  -11.3204 41.8890 -41.4313 0
M  V30 2453 O  -11.7233 42.5022 -42.4222 0
M  V30 2454 C  -11.8996 43.0046 -39.2449 0
M  V30 2455 S  -11.2494 43.7018 -37.6984 0
M  V30 2456 N  -11.3593 40.5518 -41.3043 0
M  V30 2457 C  -11.9131 39.6426 -42.3027 0 CFG=2
M  V30 2458 C  -12.5364 38.4128 -41.6310 0
M  V30 2459 O  -11.8778 37.7736 -40.8133 0
M  V30 2460 C  -10.8354 39.2608 -43.3366 0
M  V30 2461 O  -11.3638 38.3733 -44.3019 0
M  V30 2462 N  -13.7746 38.0837 -42.0340 0
M  V30 2463 C  -14.4966 36.8927 -41.5958 0 CFG=2
M  V30 2464 C  -14.3937 35.8189 -42.6880 0
M  V30 2465 O  -15.0357 35.9566 -43.7269 0
M  V30 2466 C  -15.9625 37.2776 -41.2834 0
M  V30 2467 C  -16.8584 36.1457 -40.7389 0
M  V30 2468 C  -16.2393 35.3791 -39.5605 0
M  V30 2469 N  -17.2189 34.5243 -38.8681 0
M  V30 2470 C  -17.3596 33.1858 -38.9101 0
M  V30 2471 N  -16.6222 32.3824 -39.6873 0
M  V30 2472 N  -18.2847 32.6233 -38.1329 0 CHG=1
M  V30 2473 N  -13.5938 34.7705 -42.4449 0
M  V30 2474 C  -13.4211 33.6632 -43.3863 0 CFG=2
M  V30 2475 C  -14.6009 32.6871 -43.2229 0
M  V30 2476 O  -14.8381 32.1973 -42.1184 0
M  V30 2477 C  -12.1121 32.8671 -43.1423 0 CFG=2
M  V30 2478 C  -10.8767 33.7592 -42.9027 0
M  V30 2479 C  -11.8310 31.8038 -44.2256 0
M  V30 2480 C  -10.5133 34.7209 -44.0419 0
M  V30 2481 N  -15.3175 32.4517 -44.3280 0
M  V30 2482 C  -16.5395 31.6586 -44.3938 0 CFG=2
M  V30 2483 C  -16.2986 30.4974 -45.3860 0
M  V30 2484 O  -15.9358 30.7708 -46.5328 0
M  V30 2485 C  -17.7161 32.5408 -44.9185 0 CFG=2
M  V30 2486 C  -18.0052 33.6868 -43.9174 0
M  V30 2487 C  -19.0074 31.7345 -45.1995 0
M  V30 2488 C  -19.0957 34.6747 -44.3543 0
M  V30 2489 N  -16.4931 29.2286 -44.9493 0
M  V30 2490 C  -16.3635 28.0650 -45.8454 0 CFG=2
M  V30 2491 C  -17.4751 28.0374 -46.9129 0
M  V30 2492 O  -18.6433 28.2229 -46.5707 0
M  V30 2493 C  -16.4367 26.8656 -44.8861 0
M  V30 2494 C  -17.2887 27.3454 -43.7229 0
M  V30 2495 C  -16.9275 28.8219 -43.6085 0
M  V30 2496 N  -17.0704 27.8462 -48.1851 0
M  V30 2497 C  -17.8727 27.9064 -49.4228 0 CFG=2
M  V30 2498 C  -19.1312 27.0610 -49.3153 0
M  V30 2499 O  -20.2334 27.4705 -49.6753 0
M  V30 2500 C  -17.0100 27.3886 -50.5890 0
M  V30 2501 N  -24.5513 28.1424 -43.6867 0
M  V30 2502 C  -24.5267 28.7491 -42.3414 0 CFG=2
M  V30 2503 C  -24.5111 30.2866 -42.5282 0
M  V30 2504 O  -23.6023 30.8295 -43.1624 0
M  V30 2505 C  -23.2832 28.3461 -41.4812 0
M  V30 2506 C  -23.2779 28.9943 -40.0772 0
M  V30 2507 C  -23.1493 26.8185 -41.3317 0
M  V30 2508 N  -25.4986 30.9599 -41.9133 0
M  V30 2509 C  -25.5261 32.4143 -41.7666 0 CFG=2
M  V30 2510 C  -24.7339 32.8257 -40.5175 0
M  V30 2511 O  -24.9452 32.2650 -39.4410 0
M  V30 2512 C  -26.9808 32.9140 -41.7170 0
M  V30 2513 C  -27.7341 32.6533 -43.0425 0
M  V30 2514 C  -29.1673 33.2043 -43.1195 0
M  V30 2515 O  -29.6644 33.7611 -42.1145 0
M  V30 2516 O  -29.7557 33.0517 -44.2127 0 CHG=-1
M  V30 2517 N  -23.8247 33.7901 -40.7080 0
M  V30 2518 C  -22.8546 34.2403 -39.7139 0 CFG=2
M  V30 2519 C  -22.5500 35.7385 -39.9280 0
M  V30 2520 O  -23.2810 36.4073 -40.6613 0
M  V30 2521 C  -21.6214 33.3016 -39.6928 0
M  V30 2522 S  -20.5316 33.5111 -41.1307 0
M  V30 2523 N  -21.5041 36.2524 -39.2550 0
M  V30 2524 C  -21.0884 37.6598 -39.2857 0 CFG=2
M  V30 2525 C  -20.7321 38.1360 -40.7085 0
M  V30 2526 O  -20.0101 37.4382 -41.4213 0
M  V30 2527 C  -19.9213 37.8451 -38.2970 0
M  V30 2528 C  -19.5319 39.2746 -37.9865 0
M  V30 2529 C  -20.1708 39.9539 -36.9265 0
M  V30 2530 C  -18.6315 39.9776 -38.8131 0
M  V30 2531 C  -19.8352 41.2705 -36.6467 0
M  V30 2532 C  -18.3304 41.2992 -38.5212 0
M  V30 2533 C  -18.9062 41.9345 -37.4313 0
M  V30 2534 N  -21.2721 39.3042 -41.0870 0
M  V30 2535 C  -21.2978 39.7973 -42.4690 0 CFG=2
M  V30 2536 C  -20.7563 41.2346 -42.6187 0
M  V30 2537 O  -20.8409 41.7787 -43.7200 0
M  V30 2538 C  -22.6981 39.6103 -43.1326 0
M  V30 2539 C  -23.9539 40.0372 -42.3385 0
M  V30 2540 O  -23.8401 40.8604 -41.4006 0
M  V30 2541 O  -25.0480 39.6038 -42.7624 0 CHG=-1
M  V30 2542 N  -20.2078 41.8323 -41.5438 0
M  V30 2543 C  -19.7813 43.2400 -41.5450 0 CFG=2
M  V30 2544 C  -18.2846 43.4331 -41.8612 0
M  V30 2545 O  -17.8891 44.5622 -42.1475 0
M  V30 2546 C  -20.1772 43.9262 -40.2217 0
M  V30 2547 C  -21.6211 43.6117 -39.7861 0
M  V30 2548 C  -22.2418 44.6968 -38.9013 0
M  V30 2549 C  -23.5551 44.2310 -38.2558 0
M  V30 2550 N  -24.1625 45.2907 -37.4327 0 CHG=1
M  V30 2551 N  -17.4896 42.3497 -41.8454 0
M  V30 2552 C  -16.1034 42.3330 -42.3253 0 CFG=2
M  V30 2553 C  -16.0785 41.8296 -43.7758 0
M  V30 2554 O  -16.9894 41.0994 -44.1744 0
M  V30 2555 C  -15.2602 41.3907 -41.4363 0
M  V30 2556 C  -15.1788 41.7110 -39.9524 0
M  V30 2557 C  -15.2739 43.0397 -39.4853 0
M  V30 2558 C  -14.8441 40.6930 -39.0336 0
M  V30 2559 C  -15.1208 43.3229 -38.1355 0
M  V30 2560 C  -14.6920 40.9973 -37.6874 0
M  V30 2561 C  -14.8385 42.3032 -37.2392 0
M  V30 2562 N  -15.0173 42.1798 -44.5310 0
M  V30 2563 C  -14.7997 41.6438 -45.8810 0 CFG=2
M  V30 2564 C  -14.5368 40.1286 -45.8082 0
M  V30 2565 O  -13.7404 39.6931 -44.9798 0
M  V30 2566 C  -13.6945 42.4291 -46.6295 0
M  V30 2567 C  -12.2247 42.1411 -46.2487 0
M  V30 2568 C  -11.2183 42.7280 -47.2569 0
M  V30 2569 C  -11.0983 44.2608 -47.2742 0
M  V30 2570 N  -10.5199 44.7865 -46.0279 0 CHG=1
M  V30 2571 N  -15.2552 39.3471 -46.6228 0
M  V30 2572 C  -15.2548 37.8910 -46.5073 0 CFG=2
M  V30 2573 C  -14.1030 37.2564 -47.3133 0
M  V30 2574 O  -13.8824 37.6386 -48.4621 0
M  V30 2575 C  -16.6324 37.3052 -46.9315 0
M  V30 2576 C  -16.6713 35.7728 -47.0963 0
M  V30 2577 C  -17.7279 37.7381 -45.9368 0
M  V30 2578 N  -13.4146 36.2845 -46.6848 0
M  V30 2579 C  -12.3653 35.4215 -47.2578 0 CFG=2
M  V30 2580 C  -11.0711 36.1488 -47.6859 0
M  V30 2581 O  -10.3552 35.6289 -48.5424 0
M  V30 2582 C  -12.9354 34.5122 -48.3881 0
M  V30 2583 C  -13.9558 33.4763 -47.9102 0
M  V30 2584 N  -14.7657 32.9443 -48.8260 0
M  V30 2585 O  -14.0029 33.1373 -46.7337 0
M  V30 2586 N  -10.7408 37.2892 -47.0550 0
M  V30 2587 C  -9.4433 37.9488 -47.2198 0 CFG=2
M  V30 2588 C  -8.4736 37.4158 -46.1510 0
M  V30 2589 O  -8.3697 37.9852 -45.0645 0
M  V30 2590 C  -9.6100 39.4797 -47.1758 0
M  V30 2591 O  -8.3810 40.1070 -47.4888 0
M  V30 2592 N  -7.7946 36.3070 -46.4831 0
M  V30 2593 C  -6.8497 35.5969 -45.6158 0 CFG=2
M  V30 2594 C  -5.6380 36.4436 -45.1628 0
M  V30 2595 O  -5.1139 36.1861 -44.0814 0
M  V30 2596 C  -6.3237 34.3214 -46.3332 0 CFG=1
M  V30 2597 C  -5.2822 33.4825 -45.5655 0
M  V30 2598 O  -7.4236 33.4825 -46.6322 0
M  V30 2599 N  -5.2363 37.4403 -45.9706 0
M  V30 2600 C  -4.0718 38.2990 -45.7341 0 CFG=2
M  V30 2601 C  -4.3437 39.5058 -44.8149 0
M  V30 2602 O  -3.3832 40.1881 -44.4568 0
M  V30 2603 C  -3.5219 38.7758 -47.0982 0
M  V30 2604 C  -2.9808 37.6454 -48.0029 0
M  V30 2605 C  -2.5929 38.1924 -49.3930 0
M  V30 2606 C  -1.8246 36.8649 -47.3411 0
M  V30 2607 N  -5.6107 39.7559 -44.4388 0
M  V30 2608 C  -6.0082 40.8842 -43.5903 0 CFG=2
M  V30 2609 C  -5.5121 40.6913 -42.1488 0
M  V30 2610 O  -5.5466 39.5601 -41.6773 0
M  V30 2611 C  -7.5504 41.0108 -43.6413 0
M  V30 2612 C  -8.0189 42.4724 -43.6851 0
M  V30 2613 C  -7.5635 43.2042 -44.9542 0
M  V30 2614 O  -6.9084 44.2576 -44.8059 0
M  V30 2615 O  -7.8695 42.7028 -46.0577 0 CHG=-1
M  V30 2616 N  -5.0595 41.7718 -41.4815 0
M  V30 2617 C  -4.3776 41.7249 -40.1749 0 CFG=2
M  V30 2618 C  -5.1135 40.9147 -39.0890 0
M  V30 2619 O  -4.4690 40.1486 -38.3762 0
M  V30 2620 C  -4.0486 43.1560 -39.6934 0
M  V30 2621 C  -3.2285 43.2057 -38.3825 0
M  V30 2622 C  -2.9090 44.6153 -37.8862 0
M  V30 2623 N  -2.2675 44.6880 -36.7203 0
M  V30 2624 O  -3.2286 45.6149 -38.5266 0
M  V30 2625 N  -6.4420 41.0702 -39.0174 0
M  V30 2626 C  -7.3061 40.3287 -38.1100 0 CFG=2
M  V30 2627 C  -8.1761 39.3759 -38.9343 0
M  V30 2628 O  -8.9306 39.8259 -39.7932 0
M  V30 2629 C  -8.1167 41.3116 -37.2441 0
M  V30 2630 C  -7.2485 42.3141 -36.5035 0
M  V30 2631 C  -6.2779 41.8564 -35.5890 0
M  V30 2632 C  -7.3640 43.6953 -36.7661 0
M  V30 2633 C  -5.4154 42.7674 -34.9530 0
M  V30 2634 C  -6.5095 44.6094 -36.1203 0
M  V30 2635 C  -5.5354 44.1464 -35.2136 0
M  V30 2636 O  -4.7114 45.0356 -34.5874 0
M  V30 2637 N  -8.0247 38.0710 -38.6739 0
M  V30 2638 C  -8.7276 37.0002 -39.3770 0 CFG=2
M  V30 2639 C  -9.5920 36.2567 -38.3535 0
M  V30 2640 O  -9.0628 35.7612 -37.3664 0
M  V30 2641 C  -7.7217 35.9974 -40.0096 0
M  V30 2642 C  -8.3460 34.7151 -40.5866 0
M  V30 2643 C  -6.8831 36.6748 -41.1013 0
M  V30 2644 N  -10.9011 36.1934 -38.6100 0
M  V30 2645 C  -11.8903 35.5538 -37.7487 0 CFG=2
M  V30 2646 C  -12.4211 34.3440 -38.5189 0
M  V30 2647 O  -12.9271 34.5184 -39.6255 0
M  V30 2648 C  -13.0074 36.5667 -37.4340 0
M  V30 2649 C  -12.5504 37.8147 -36.6957 0
M  V30 2650 C  -11.9568 38.8777 -37.4098 0
M  V30 2651 C  -12.5701 37.8654 -35.2855 0
M  V30 2652 C  -11.4280 39.9636 -36.7321 0
M  V30 2653 C  -12.0444 38.9686 -34.6259 0
M  V30 2654 C  -11.4646 40.0056 -35.3462 0
M  V30 2655 N  -12.2520 33.1349 -37.9656 0
M  V30 2656 C  -12.4746 31.9060 -38.7222 0 CFG=2
M  V30 2657 C  -12.6674 30.7174 -37.7777 0
M  V30 2658 O  -11.8529 30.5410 -36.8768 0
M  V30 2659 C  -11.2918 31.6603 -39.6819 0
M  V30 2660 S  -11.5636 30.1990 -40.7122 0
M  V30 2661 N  -13.6787 29.8727 -38.0462 0
M  V30 2662 C  -13.8689 28.6043 -37.3355 0 CFG=2
M  V30 2663 C  -12.7646 27.5838 -37.6749 0
M  V30 2664 O  -12.2098 27.6396 -38.7723 0
M  V30 2665 C  -15.2401 27.9575 -37.6525 0 CFG=1
M  V30 2666 C  -16.4180 28.8317 -37.2191 0
M  V30 2667 O  -15.3826 27.6467 -39.0272 0
M  V30 2668 N  -12.4661 26.6863 -36.7172 0
M  V30 2669 C  -11.3544 25.7271 -36.7769 0 CFG=2
M  V30 2670 C  -11.3330 24.8480 -38.0477 0
M  V30 2671 O  -10.2800 24.7419 -38.6766 0
M  V30 2672 C  -11.2899 24.8200 -35.5122 0
M  V30 2673 C  -10.2884 23.6477 -35.6045 0
M  V30 2674 C  -10.9741 25.6470 -34.2539 0
M  V30 2675 N  -12.4956 24.2853 -38.4274 0
M  V30 2676 C  -12.6568 23.4414 -39.6223 0 CFG=2
M  V30 2677 C  -12.5373 24.1821 -40.9739 0
M  V30 2678 O  -12.4872 23.5128 -42.0043 0
M  V30 2679 C  -13.9541 22.5892 -39.5267 0
M  V30 2680 C  -15.2920 23.3191 -39.3064 0
M  V30 2681 N  -15.4804 24.5177 -39.8638 0
M  V30 2682 O  -16.1755 22.7789 -38.6463 0
M  V30 2683 N  -12.5106 25.5253 -40.9510 0
M  V30 2684 C  -12.4326 26.3834 -42.1321 0 CFG=2
M  V30 2685 C  -11.0992 27.1462 -42.2365 0
M  V30 2686 O  -10.9430 27.8893 -43.2064 0
M  V30 2687 C  -13.6221 27.3594 -42.0964 0
M  V30 2688 N  -10.1809 26.9878 -41.2575 0
M  V30 2689 C  -8.9075 27.7195 -41.1711 0 CFG=2
M  V30 2690 C  -8.0375 27.5282 -42.4307 0
M  V30 2691 O  -7.7726 26.3797 -42.7870 0
M  V30 2692 C  -8.0993 27.2369 -39.9432 0
M  V30 2693 C  -8.5476 27.8092 -38.5858 0
M  V30 2694 C  -7.8141 27.0921 -37.4443 0
M  V30 2695 C  -8.3704 29.3378 -38.4717 0
M  V30 2696 N  -7.5950 28.6338 -43.0748 0
M  V30 2697 C  -6.6135 28.5524 -44.1681 0 CFG=2
M  V30 2698 C  -5.2086 28.2054 -43.6431 0
M  V30 2699 O  -4.9146 28.4462 -42.4705 0
M  V30 2700 C  -6.6665 29.9575 -44.7855 0
M  V30 2701 C  -6.9913 30.8757 -43.6194 0
M  V30 2702 C  -7.9119 30.0292 -42.7488 0
M  V30 2703 N  -4.3679 27.6461 -44.5271 0
M  V30 2704 C  -2.9720 27.3438 -44.2212 0 CFG=2
M  V30 2705 C  -2.1740 28.6544 -44.3049 0
M  V30 2706 O  -2.0152 29.2041 -45.3959 0
M  V30 2707 C  -2.4499 26.2462 -45.1749 0
M  V30 2708 C  -1.7382 25.1123 -44.4042 0
M  V30 2709 C  -1.3019 23.9127 -45.2596 0
M  V30 2710 O  -1.1711 24.0639 -46.4949 0
M  V30 2711 O  -1.1149 22.8367 -44.6503 0 CHG=-1
M  V30 2712 N  -1.7527 29.1609 -43.1382 0
M  V30 2713 C  -1.1677 30.4905 -42.9968 0 CFG=2
M  V30 2714 C  -0.3654 30.5895 -41.6787 0
M  V30 2715 O  -0.2486 29.6041 -40.9511 0
M  V30 2716 C  -2.2723 31.5932 -43.1012 0 CFG=1
M  V30 2717 C  -3.2399 31.6638 -41.9035 0
M  V30 2718 O  -1.6978 32.8747 -43.2669 0
M  V30 2719 N  0.2070 31.7695 -41.4129 0
M  V30 2720 C  0.9746 32.0876 -40.2119 0 CFG=2
M  V30 2721 C  0.3622 33.3195 -39.5193 0
M  V30 2722 O  -0.4675 34.0051 -40.1150 0
M  V30 2723 C  2.4546 32.3899 -40.5830 0 CFG=1
M  V30 2724 C  3.1173 31.2605 -41.3869 0
M  V30 2725 O  2.6096 33.6036 -41.2988 0
M  V30 2726 N  0.7820 33.5795 -38.2727 0
M  V30 2727 C  0.3376 34.7285 -37.4833 0 CFG=2
M  V30 2728 C  1.3981 35.0972 -36.4404 0
M  V30 2729 O  2.2925 34.3041 -36.1537 0
M  V30 2730 C  -1.0068 34.3985 -36.8113 0
M  V30 2731 N  1.2643 36.2973 -35.8648 0
M  V30 2732 C  2.0537 36.7355 -34.7110 0 CFG=2
M  V30 2733 C  1.4103 36.2687 -33.3958 0
M  V30 2734 O  2.1375 35.9645 -32.4521 0
M  V30 2735 C  2.3024 38.2596 -34.7244 0
M  V30 2736 C  3.0000 38.7581 -36.0010 0
M  V30 2737 O  2.5547 39.7931 -36.5379 0
M  V30 2738 O  4.0213 38.1477 -36.3862 0 CHG=-1
M  V30 2739 N  0.0717 36.1635 -33.3645 0
M  V30 2740 C  -0.6634 35.5215 -32.2781 0 CFG=2
M  V30 2741 C  -1.8393 34.7413 -32.8965 0
M  V30 2742 O  -2.4592 35.2156 -33.8427 0
M  V30 2743 C  -1.2243 36.5284 -31.2184 0 CFG=2
M  V30 2744 C  -0.1709 37.5716 -30.7624 0
M  V30 2745 C  -1.8027 35.7855 -29.9931 0
M  V30 2746 C  -0.6866 38.6351 -29.7830 0
M  V30 2747 N  -2.1463 33.5642 -32.3425 0
M  V30 2748 C  -3.3962 32.8494 -32.5884 0 CFG=2
M  V30 2749 C  -4.1782 32.8642 -31.2737 0
M  V30 2750 O  -3.6160 32.5008 -30.2463 0
M  V30 2751 C  -3.1404 31.3809 -33.0278 0
M  V30 2752 C  -4.3506 30.4259 -32.9060 0
M  V30 2753 C  -2.6181 31.3530 -34.4705 0
M  V30 2754 N  -5.4495 33.2758 -31.3238 0
M  V30 2755 C  -6.3405 33.2647 -30.1693 0 CFG=2
M  V30 2756 C  -7.4339 32.2190 -30.4340 0
M  V30 2757 O  -8.2042 32.3894 -31.3745 0
M  V30 2758 C  -6.9845 34.6581 -29.9299 0
M  V30 2759 C  -8.0658 34.6504 -28.8307 0
M  V30 2760 C  -5.9173 35.7169 -29.5914 0
M  V30 2761 N  -7.4740 31.1610 -29.6100 0
M  V30 2762 C  -8.4653 30.0895 -29.6895 0 CFG=2
M  V30 2763 C  -9.3983 30.2503 -28.4781 0
M  V30 2764 O  -9.0110 29.8999 -27.3652 0
M  V30 2765 C  -7.7357 28.7270 -29.7236 0
M  V30 2766 C  -8.5321 27.4877 -30.1359 0
M  V30 2767 C  -7.8264 26.3086 -30.4571 0
M  V30 2768 C  -9.9461 27.4304 -30.1034 0
M  V30 2769 C  -8.5089 25.1403 -30.7696 0
M  V30 2770 C  -10.6104 26.2520 -30.4146 0
M  V30 2771 C  -9.8950 25.1116 -30.7485 0
M  V30 2772 N  -10.6040 30.7864 -28.7283 0
M  V30 2773 C  -11.6322 31.0523 -27.7204 0 CFG=2
M  V30 2774 C  -12.5560 29.8303 -27.5276 0
M  V30 2775 O  -12.6932 28.9985 -28.4266 0
M  V30 2776 C  -12.4362 32.3279 -28.0910 0
M  V30 2777 C  -13.2606 33.0117 -26.9779 0
M  V30 2778 O  -13.0125 32.7524 -25.7780 0
M  V30 2779 O  -14.0752 33.8845 -27.3483 0 CHG=-1
M  V30 2780 N  -13.1712 29.7775 -26.3333 0
M  V30 2781 C  -14.1118 28.7771 -25.8272 0 CFG=2
M  V30 2782 C  -13.4987 27.3603 -25.8501 0
M  V30 2783 O  -14.0576 26.4451 -26.4533 0
M  V30 2784 C  -15.4773 28.9582 -26.5386 0
M  V30 2785 C  -16.6541 28.2021 -25.8767 0
M  V30 2786 C  -18.0666 28.6061 -26.3449 0
M  V30 2787 O  -18.2025 29.5501 -27.1528 0
M  V30 2788 O  -19.0194 27.9594 -25.8574 0 CHG=-1
M  V30 2789 N  -12.3094 27.2372 -25.2289 0
M  V30 2790 C  -11.4242 26.0764 -25.3434 0 CFG=2
M  V30 2791 C  -11.9537 24.7820 -24.6940 0
M  V30 2792 O  -11.4913 23.7170 -25.0870 0
M  V30 2793 C  -9.9834 26.3796 -24.8150 0 CFG=2
M  V30 2794 C  -8.9053 25.4695 -25.4463 0
M  V30 2795 C  -9.8333 26.3503 -23.2780 0
M  V30 2796 C  -8.7935 25.6040 -26.9685 0
M  V30 2797 N  -12.9313 24.8543 -23.7726 0
M  V30 2798 C  -13.6198 23.6671 -23.2489 0 CFG=2
M  V30 2799 C  -14.4236 22.9129 -24.3253 0
M  V30 2800 O  -14.3999 21.6826 -24.3263 0
M  V30 2801 C  -14.4492 24.0445 -22.0097 0
M  V30 2802 O  -15.5463 24.8859 -22.3121 0
M  V30 2803 N  -15.0382 23.6612 -25.2599 0
M  V30 2804 C  -15.7459 23.1440 -26.4352 0 CFG=2
M  V30 2805 C  -14.8300 22.5860 -27.5414 0
M  V30 2806 O  -15.3566 22.0478 -28.5154 0
M  V30 2807 C  -16.6739 24.2313 -27.0128 0
M  V30 2808 C  -17.7832 24.7033 -26.0619 0
M  V30 2809 S  -19.0265 23.4786 -25.5796 0
M  V30 2810 C  -19.8072 23.1437 -27.1780 0
M  V30 2811 N  -13.4995 22.6944 -27.3881 0
M  V30 2812 C  -12.5411 22.0262 -28.2613 0 CFG=2
M  V30 2813 C  -12.3481 20.5603 -27.8531 0
M  V30 2814 O  -12.4599 20.2082 -26.6783 0
M  V30 2815 C  -11.2040 22.7803 -28.2404 0
M  V30 2816 N  -12.0203 19.7465 -28.8583 0
M  V30 2817 C  -11.4989 18.3926 -28.7136 0 CFG=2
M  V30 2818 C  -10.0122 18.4084 -29.1311 0
M  V30 2819 O  -9.5398 19.4009 -29.6906 0
M  V30 2820 C  -12.2843 17.4098 -29.6300 0 CFG=1
M  V30 2821 C  -13.8012 17.4240 -29.3744 0
M  V30 2822 O  -12.0493 17.6301 -31.0093 0
M  V30 2823 N  -9.2941 17.3009 -28.8736 0
M  V30 2824 C  -7.9100 17.1007 -29.3336 0 CFG=2
M  V30 2825 C  -7.7712 17.0864 -30.8648 0
M  V30 2826 O  -6.6992 17.4390 -31.3531 0
M  V30 2827 C  -7.3415 15.8000 -28.7204 0
M  V30 2828 C  -6.9086 15.9315 -27.2567 0
M  V30 2829 N  -6.6097 14.8002 -26.6182 0
M  V30 2830 O  -6.8183 17.0290 -26.7119 0
M  V30 2831 N  -8.8503 16.7495 -31.5933 0
M  V30 2832 C  -8.9090 16.8690 -33.0473 0 CFG=2
M  V30 2833 C  -8.8084 18.3383 -33.4977 0
M  V30 2834 O  -8.0136 18.6476 -34.3818 0
M  V30 2835 C  -10.1840 16.1851 -33.5832 0
M  V30 2836 C  -10.1598 15.9726 -35.0829 0
M  V30 2837 C  -10.5008 17.0269 -35.9550 0
M  V30 2838 C  -9.7443 14.7330 -35.6092 0
M  V30 2839 C  -10.3937 16.8531 -37.3451 0
M  V30 2840 C  -9.6270 14.5607 -36.9999 0
M  V30 2841 C  -9.9445 15.6261 -37.8646 0
M  V30 2842 O  -9.8098 15.4824 -39.2096 0
M  V30 2843 N  -9.5951 19.2083 -32.8469 0
M  V30 2844 C  -9.6588 20.6526 -33.0851 0 CFG=2
M  V30 2845 C  -8.3479 21.3684 -32.7172 0
M  V30 2846 O  -7.9027 22.2198 -33.4848 0
M  V30 2847 C  -10.8721 21.3016 -32.3710 0
M  V30 2848 C  -12.2208 20.6092 -32.6491 0
M  V30 2849 O  -12.4568 20.1998 -33.8089 0
M  V30 2850 O  -13.0422 20.5689 -31.7078 0 CHG=-1
M  V30 2851 N  -7.7248 20.9711 -31.5923 0
M  V30 2852 C  -6.4026 21.4375 -31.1640 0 CFG=2
M  V30 2853 C  -5.2849 21.0964 -32.1681 0
M  V30 2854 O  -4.4458 21.9530 -32.4485 0
M  V30 2855 C  -6.0501 20.8300 -29.7896 0
M  V30 2856 C  -6.7731 21.3994 -28.5537 0
M  V30 2857 C  -6.1855 20.7595 -27.2861 0
M  V30 2858 C  -6.6954 22.9332 -28.4507 0
M  V30 2859 N  -5.3121 19.8593 -32.6918 0
M  V30 2860 C  -4.3875 19.3502 -33.7022 0 CFG=2
M  V30 2861 C  -4.5078 20.0872 -35.0471 0
M  V30 2862 O  -3.4783 20.4510 -35.6150 0
M  V30 2863 C  -4.5995 17.8313 -33.8408 0
M  V30 2864 O  -3.8397 17.2784 -34.8925 0
M  V30 2865 N  -5.7513 20.3229 -35.5055 0
M  V30 2866 C  -6.0546 21.0665 -36.7297 0 CFG=2
M  V30 2867 C  -5.5328 22.5158 -36.6840 0
M  V30 2868 O  -4.9130 22.9358 -37.6558 0
M  V30 2869 C  -7.5762 21.0367 -37.0742 0
M  V30 2870 C  -8.0593 22.0891 -38.0995 0
M  V30 2871 C  -7.9856 19.6410 -37.5791 0
M  V30 2872 N  -5.7181 23.2292 -35.5578 0
M  V30 2873 C  -5.2089 24.5945 -35.3716 0 CFG=2
M  V30 2874 C  -3.6753 24.7092 -35.5096 0
M  V30 2875 O  -3.2191 25.6443 -36.1618 0
M  V30 2876 C  -5.6792 25.2209 -34.0239 0
M  V30 2877 C  -4.9379 26.5033 -33.5797 0
M  V30 2878 C  -7.1847 25.5199 -34.0792 0
M  V30 2879 N  -2.9160 23.7472 -34.9575 0
M  V30 2880 C  -1.4513 23.7060 -35.0772 0 CFG=2
M  V30 2881 C  -0.9627 23.2492 -36.4663 0
M  V30 2882 O  0.1644 23.5906 -36.8237 0
M  V30 2883 C  -0.8668 22.8245 -33.9494 0
M  V30 2884 C  -1.0165 23.4426 -32.5521 0
M  V30 2885 N  -1.1502 22.6021 -31.5294 0
M  V30 2886 O  -0.9883 24.6600 -32.3853 0
M  V30 2887 N  -1.8000 22.5257 -37.2322 0
M  V30 2888 C  -1.5085 22.1180 -38.6089 0 CFG=2
M  V30 2889 C  -1.7322 23.2542 -39.6216 0
M  V30 2890 O  -0.9178 23.4068 -40.5319 0
M  V30 2891 C  -2.3546 20.8880 -38.9764 0
M  V30 2892 N  -2.8196 24.0263 -39.4452 0
M  V30 2893 C  -3.1827 25.1442 -40.3181 0 CFG=2
M  V30 2894 C  -2.4252 26.4390 -39.9828 0
M  V30 2895 O  -2.0817 27.1676 -40.9102 0
M  V30 2896 C  -4.7130 25.3794 -40.2912 0
M  V30 2897 C  -5.5985 24.1600 -40.6432 0
M  V30 2898 C  -5.2955 23.4382 -41.9674 0
M  V30 2899 N  -5.7075 24.2312 -43.1346 0
M  V30 2900 C  -5.4665 23.9677 -44.4303 0
M  V30 2901 N  -4.7103 22.9317 -44.8214 0
M  V30 2902 N  -6.0111 24.7641 -45.3576 0 CHG=1
M  V30 2903 N  -2.1849 26.7151 -38.6902 0
M  V30 2904 C  -1.6177 27.9819 -38.2238 0 CFG=2
M  V30 2905 C  -0.2389 27.7467 -37.5951 0
M  V30 2906 O  -0.1317 26.9509 -36.6613 0
M  V30 2907 C  -2.5688 28.6557 -37.2082 0
M  V30 2908 C  -4.0390 28.8017 -37.6663 0
M  V30 2909 C  -4.8959 29.4045 -36.5384 0
M  V30 2910 C  -4.1858 29.5766 -38.9913 0
M  V30 2911 N  0.7732 28.4745 -38.0983 0
M  V30 2912 C  2.1427 28.4880 -37.5747 0 CFG=2
M  V30 2913 C  2.3808 29.8584 -36.9241 0
M  V30 2914 O  2.5933 30.8325 -37.6466 0
M  V30 2915 N  2.2852 29.9327 -35.5882 0
M  V30 2916 C  2.2890 31.2058 -34.8679 0 CFG=2
M  V30 2917 C  3.4833 31.3450 -33.9231 0
M  V30 2918 O  3.9665 30.3441 -33.3922 0
M  V30 2919 C  0.9689 31.3398 -34.1030 0
M  V30 2920 N  3.8938 32.6053 -33.6858 0
M  V30 2921 C  4.8496 32.9670 -32.6325 0 CFG=2
M  V30 2922 C  4.2682 32.7175 -31.2286 0
M  V30 2923 O  5.0231 32.3516 -30.3291 0
M  V30 2924 C  5.2616 34.4515 -32.7428 0
M  V30 2925 C  5.9747 34.8555 -34.0409 0
M  V30 2926 C  6.2222 36.3725 -34.0917 0
M  V30 2927 C  7.0455 36.8023 -35.3172 0
M  V30 2928 N  7.0802 38.2672 -35.4761 0 CHG=1
M  V30 2929 N  2.9486 32.9372 -31.0766 0
M  V30 2930 C  2.2101 32.8198 -29.8206 0 CFG=2
M  V30 2931 C  0.8477 32.1653 -30.0775 0
M  V30 2932 O  0.2342 32.4316 -31.1081 0
M  V30 2933 C  2.0529 34.2151 -29.1862 0
M  V30 2934 C  3.3746 34.8496 -28.8440 0
M  V30 2935 C  4.1022 35.8069 -29.5219 0
M  V30 2936 N  4.1924 34.3599 -27.8388 0 CHG=1
M  V30 2937 C  5.3293 35.0427 -27.8946 0
M  V30 2938 N  5.3200 35.9290 -28.8827 0
M  V30 2939 N  0.3886 31.3421 -29.1237 0
M  V30 2940 C  -0.9372 30.7217 -29.1302 0 CFG=2
M  V30 2941 C  -1.5925 30.9955 -27.7718 0
M  V30 2942 O  -1.0698 30.5563 -26.7542 0
M  V30 2943 C  -0.8360 29.1999 -29.3697 0
M  V30 2944 C  -0.2445 28.7556 -30.6954 0
M  V30 2945 C  -1.0875 28.4795 -31.7928 0
M  V30 2946 C  1.1475 28.5639 -30.8189 0
M  V30 2947 C  -0.5450 27.9998 -33.0013 0
M  V30 2948 C  1.6895 28.0853 -32.0260 0
M  V30 2949 C  0.8441 27.7928 -33.1124 0
M  V30 2950 O  1.3788 27.3042 -34.2670 0
M  V30 2951 N  -2.7278 31.6992 -27.7564 0
M  V30 2952 C  -3.4663 31.9893 -26.5320 0 CFG=2
M  V30 2953 C  -4.7572 31.1646 -26.5502 0
M  V30 2954 O  -5.5656 31.3133 -27.4635 0
M  V30 2955 C  -3.8256 33.4898 -26.4010 0
M  V30 2956 C  -4.4942 33.8189 -25.0516 0
M  V30 2957 C  -2.5750 34.3638 -26.5632 0
M  V30 2958 N  -4.9146 30.3018 -25.5415 0
M  V30 2959 C  -6.0717 29.4320 -25.3968 0 CFG=2
M  V30 2960 C  -6.9715 29.9953 -24.2966 0
M  V30 2961 O  -6.6221 29.9183 -23.1204 0
M  V30 2962 C  -5.6035 28.0111 -25.0698 0
M  V30 2963 C  -4.7345 27.3633 -26.1315 0
M  V30 2964 C  -5.3190 26.8997 -27.3268 0
M  V30 2965 C  -3.3474 27.2084 -25.9279 0
M  V30 2966 C  -4.5282 26.2839 -28.3148 0
M  V30 2967 C  -2.5571 26.5894 -26.9162 0
M  V30 2968 C  -3.1446 26.1311 -28.1110 0
M  V30 2969 O  -2.3717 25.5382 -29.0668 0
M  V30 2970 N  -8.1041 30.5698 -24.7140 0
M  V30 2971 C  -9.0697 31.2238 -23.8413 0 CFG=2
M  V30 2972 C  -10.3130 30.3290 -23.7205 0
M  V30 2973 O  -10.7246 29.7180 -24.7025 0
M  V30 2974 C  -9.4901 32.6147 -24.4064 0 CFG=2
M  V30 2975 C  -8.2561 33.5054 -24.6899 0
M  V30 2976 C  -10.4987 33.3301 -23.4845 0
M  V30 2977 C  -8.5830 34.8855 -25.2738 0
M  V30 2978 N  -10.8941 30.2767 -22.5184 0
M  V30 2979 C  -12.0893 29.4948 -22.2376 0
M  V30 2980 C  -12.1029 29.2249 -20.7387 0
M  V30 2981 O  -11.6527 30.0617 -19.9559 0
M  V30 2982 N  -12.6737 28.0804 -20.3369 0
M  V30 2983 C  -12.8863 27.7586 -18.9317 0 CFG=2
M  V30 2984 C  -13.1820 26.2521 -18.8043 0
M  V30 2985 O  -14.2436 25.8346 -19.2661 0
M  V30 2986 C  -14.0585 28.6010 -18.3692 0
M  V30 2987 C  -14.3514 28.4442 -16.8747 0
M  V30 2988 O  -13.4825 27.9489 -16.1291 0
M  V30 2989 O  -15.4235 28.9311 -16.4735 0 CHG=-1
M  V30 2990 N  -12.2972 25.4673 -18.1425 0
M  V30 2991 C  -12.5386 24.0328 -17.9183 0 CFG=2
M  V30 2992 C  -13.6572 23.7275 -16.9010 0
M  V30 2993 O  -14.0501 22.5694 -16.8139 0
M  V30 2994 C  -11.1687 23.5105 -17.4592 0
M  V30 2995 C  -10.5671 24.6800 -16.7048 0
M  V30 2996 C  -11.0444 25.8833 -17.5108 0
M  V30 2997 N  -14.1686 24.7480 -16.1866 0
M  V30 2998 C  -15.3508 24.6584 -15.3295 0 CFG=2
M  V30 2999 C  -16.6751 24.8792 -16.0857 0
M  V30 3000 O  -17.7257 24.7044 -15.4747 0
M  V30 3001 C  -15.2239 25.6732 -14.1907 0
M  V30 3002 N  -16.6265 25.2360 -17.3794 0
M  V30 3003 C  -17.7893 25.2819 -18.2696 0 CFG=2
M  V30 3004 C  -17.8621 24.0169 -19.1397 0
M  V30 3005 O  -16.9553 23.1838 -19.0939 0
M  V30 3006 C  -17.7718 26.5954 -19.0767 0
M  V30 3007 C  -18.1852 27.7923 -18.2008 0
M  V30 3008 C  -18.2433 29.1102 -18.9706 0
M  V30 3009 N  -17.3731 30.0574 -18.6187 0
M  V30 3010 O  -19.0859 29.2859 -19.8479 0
M  V30 3011 N  -18.9869 23.8539 -19.8537 0
M  V30 3012 C  -19.3485 22.6125 -20.5397 0 CFG=2
M  V30 3013 C  -18.4080 22.2677 -21.7136 0
M  V30 3014 O  -17.9954 23.1746 -22.4408 0
M  V30 3015 C  -20.8039 22.7102 -21.0333 0
M  V30 3016 C  -21.8287 22.6698 -19.8821 0
M  V30 3017 C  -23.1965 23.1503 -20.3733 0
M  V30 3018 C  -21.9244 21.2606 -19.2667 0
M  V30 3019 N  -18.0940 20.9609 -21.8748 0
M  V30 3020 C  -17.2771 20.4780 -22.9927 0 CFG=2
M  V30 3021 C  -18.0726 20.2967 -24.2941 0
M  V30 3022 O  -19.3013 20.3928 -24.2918 0
M  V30 3023 C  -16.7758 19.1253 -22.4750 0
M  V30 3024 C  -17.9303 18.5900 -21.6477 0
M  V30 3025 C  -18.4913 19.8503 -21.0007 0
M  V30 3026 N  -17.3399 19.9525 -25.3671 0
M  V30 3027 C  -17.8836 19.4243 -26.6208 0 CFG=2
M  V30 3028 C  -18.7033 18.1432 -26.3361 0
M  V30 3029 O  -18.1613 17.2619 -25.6659 0
M  V30 3030 C  -16.6953 19.0693 -27.5331 0
M  V30 3031 N  -19.9768 18.0587 -26.7909 0
M  V30 3032 C  -20.7960 16.8381 -26.6448 0 CFG=2
M  V30 3033 C  -20.1397 15.5697 -27.2241 0
M  V30 3034 O  -19.9010 15.5055 -28.4298 0
M  V30 3035 C  -22.1116 17.1846 -27.3702 0
M  V30 3036 C  -22.1969 18.6980 -27.3092 0
M  V30 3037 C  -20.7421 19.1320 -27.4268 0
M  V30 3038 N  -19.8598 14.5928 -26.3464 0
M  V30 3039 C  -19.4410 13.2467 -26.7339 0 CFG=2
M  V30 3040 C  -20.7131 12.4078 -26.8855 0
M  V30 3041 O  -21.2350 11.8984 -25.8933 0
M  V30 3042 C  -18.5080 12.6400 -25.6663 0
M  V30 3043 C  -17.0287 13.0031 -25.8148 0
M  V30 3044 C  -16.6785 14.4925 -25.7972 0
M  V30 3045 N  -15.2208 14.6495 -25.8849 0
M  V30 3046 C  -14.4644 15.6951 -25.5195 0
M  V30 3047 N  -14.9791 16.8205 -25.0036 0
M  V30 3048 N  -13.1435 15.5888 -25.6829 0 CHG=1
M  V30 3049 N  -21.1899 12.3021 -28.1346 0
M  V30 3050 C  -22.4076 11.5791 -28.5042 0 CFG=2
M  V30 3051 C  -22.3207 10.0552 -28.2664 0
M  V30 3052 O  -23.3584 9.4438 -28.0151 0
M  V30 3053 C  -22.7622 11.8203 -29.9959 0 CFG=1
M  V30 3054 C  -22.9687 13.3052 -30.3348 0
M  V30 3055 O  -21.7861 11.2826 -30.8736 0
M  V30 3056 N  -21.1053 9.4798 -28.3163 0
M  V30 3057 C  -20.8694 8.0611 -28.0464 0 CFG=2
M  V30 3058 C  -20.8322 7.7470 -26.5422 0
M  V30 3059 O  -21.2925 6.6709 -26.1665 0
M  V30 3060 C  -19.5589 7.5981 -28.7156 0
M  V30 3061 C  -19.4967 7.7818 -30.2437 0
M  V30 3062 C  -18.1095 7.3835 -30.7577 0
M  V30 3063 C  -20.6058 7.0357 -31.0059 0
M  V30 3064 N  -20.2968 8.6724 -25.7214 0
M  V30 3065 C  -20.1488 8.5316 -24.2694 0 CFG=2
M  V30 3066 C  -21.5091 8.4499 -23.5583 0
M  V30 3067 O  -22.2884 9.3996 -23.6341 0
M  V30 3068 C  -19.2883 9.6982 -23.7315 0
M  V30 3069 C  -19.0466 9.7340 -22.2043 0
M  V30 3070 C  -18.5306 8.3970 -21.6467 0
M  V30 3071 C  -18.1138 10.9023 -21.8263 0
M  V30 3072 N  -21.7461 7.3188 -22.8770 0
M  V30 3073 C  -22.9798 7.0362 -22.1387 0 CFG=2
M  V30 3074 C  -22.7088 6.4535 -20.7344 0
M  V30 3075 O  -23.6203 6.4964 -19.9083 0
M  V30 3076 C  -23.8802 6.0270 -22.9071 0 CFG=1
M  V30 3077 C  -24.3605 6.5472 -24.2712 0
M  V30 3078 O  -23.2313 4.7813 -23.1004 0
M  V30 3079 N  -21.4945 5.9369 -20.4735 0
M  V30 3080 C  -21.1188 5.3009 -19.2103 0 CFG=2
M  V30 3081 C  -19.9710 6.0809 -18.5598 0
M  V30 3082 O  -18.8646 6.1039 -19.0964 0
M  V30 3083 C  -20.7201 3.8373 -19.4812 0
M  V30 3084 C  -21.9166 2.9476 -19.8697 0
M  V30 3085 C  -21.5013 1.5633 -20.3870 0
M  V30 3086 C  -20.9326 1.6154 -21.8141 0
M  V30 3087 N  -20.4576 0.2970 -22.2663 0 CHG=1
M  V30 3088 N  -20.2613 6.6877 -17.3998 0
M  V30 3089 C  -19.3085 7.4676 -16.6139 0
M  V30 3090 C  -19.3456 8.9492 -17.0130 0
M  V30 3091 O  -19.8552 9.3220 -18.0715 0
M  V30 3092 N  -18.7718 9.7862 -16.1360 0
M  V30 3093 C  -18.6477 11.2326 -16.3102 0 CFG=2
M  V30 3094 C  -17.2098 11.5655 -16.7384 0
M  V30 3095 O  -16.2624 11.0660 -16.1282 0
M  V30 3096 C  -18.9361 11.9687 -14.9713 0 CFG=1
M  V30 3097 C  -18.7012 13.4923 -14.9763 0
M  V30 3098 O  -20.2897 11.7503 -14.6230 0
M  V30 3099 N  -17.0818 12.4248 -17.7625 0
M  V30 3100 C  -15.8014 12.9618 -18.2127 0 CFG=2
M  V30 3101 C  -15.4537 14.1967 -17.3700 0
M  V30 3102 O  -16.1775 15.1909 -17.4404 0
M  V30 3103 C  -15.8907 13.3030 -19.7193 0
M  V30 3104 C  -14.5317 13.6237 -20.3813 0
M  V30 3105 C  -13.5856 12.4118 -20.3206 0
M  V30 3106 C  -14.7124 14.1206 -21.8309 0
M  V30 3107 N  -14.3615 14.1129 -16.5927 0
M  V30 3108 C  -13.8649 15.2315 -15.7876 0 CFG=2
M  V30 3109 C  -13.1622 16.2980 -16.6594 0
M  V30 3110 O  -12.6299 15.9417 -17.7133 0
M  V30 3111 C  -12.9338 14.7105 -14.6673 0
M  V30 3112 C  -13.6459 13.8548 -13.5983 0
M  V30 3113 C  -14.6469 14.6605 -12.7573 0
M  V30 3114 O  -14.1866 15.5583 -12.0169 0
M  V30 3115 O  -15.8587 14.3741 -12.8756 0 CHG=-1
M  V30 3116 N  -13.1536 17.5748 -16.1988 0
M  V30 3117 C  -12.4734 18.7060 -16.8667 0 CFG=2
M  V30 3118 C  -11.0492 18.4997 -17.4029 0
M  V30 3119 O  -10.7488 18.9987 -18.4860 0
M  V30 3120 C  -12.5042 19.8043 -15.8036 0
M  V30 3121 C  -13.8167 19.5754 -15.0920 0
M  V30 3122 C  -13.8825 18.0576 -15.0167 0
M  V30 3123 N  -10.2139 17.7502 -16.6644 0
M  V30 3124 C  -8.8289 17.4423 -17.0314 0 CFG=2
M  V30 3125 C  -8.6765 16.4680 -18.2248 0
M  V30 3126 O  -7.5431 16.1457 -18.5780 0
M  V30 3127 C  -8.0730 16.9448 -15.7793 0
M  V30 3128 C  -8.5805 15.6001 -15.2083 0
M  V30 3129 C  -7.7754 15.0511 -14.0190 0
M  V30 3130 O  -6.5467 15.2856 -13.9649 0
M  V30 3131 O  -8.4050 14.3627 -13.1869 0 CHG=-1
M  V30 3132 N  -9.7944 16.0036 -18.8074 0
M  V30 3133 C  -9.8424 15.0664 -19.9307 0 CFG=2
M  V30 3134 C  -10.6525 15.6166 -21.1217 0
M  V30 3135 O  -10.8417 14.8745 -22.0860 0
M  V30 3136 C  -10.4333 13.7267 -19.4464 0
M  V30 3137 C  -9.7662 13.1127 -18.2285 0
M  V30 3138 C  -8.4160 12.7105 -18.2785 0
M  V30 3139 C  -10.5009 12.9431 -17.0373 0
M  V30 3140 C  -7.8065 12.1478 -17.1411 0
M  V30 3141 C  -9.8896 12.3856 -15.8967 0
M  V30 3142 C  -8.5391 11.9873 -15.9497 0
M  V30 3143 O  -7.9341 11.4564 -14.8490 0
M  V30 3144 N  -11.1076 16.8860 -21.0656 0
M  V30 3145 C  -11.8176 17.5543 -22.1684 0 CFG=2
M  V30 3146 C  -10.9512 17.7527 -23.4199 0
M  V30 3147 O  -11.4660 17.6593 -24.5305 0
M  V30 3148 C  -12.3498 18.9358 -21.7328 0
M  V30 3149 C  -13.4390 19.0019 -20.6805 0
M  V30 3150 C  -14.1464 17.8585 -20.2452 0
M  V30 3151 C  -13.8325 20.2721 -20.2089 0
M  V30 3152 C  -15.1968 17.9952 -19.3500 0
M  V30 3153 C  -14.8896 20.3851 -19.3192 0
M  V30 3154 C  -15.5672 19.2507 -18.8894 0
M  V30 3155 N  -9.6622 18.0368 -23.2040 0
M  V30 3156 C  -8.6273 18.2399 -24.2143 0 CFG=2
M  V30 3157 C  -7.3014 18.5175 -23.4904 0
M  V30 3158 O  -7.2746 18.6209 -22.2629 0
M  V30 3159 C  -9.0019 19.3408 -25.2476 0
M  V30 3160 C  -9.3332 20.7047 -24.6359 0
M  V30 3161 N  -10.6081 21.0812 -24.6627 0
M  V30 3162 O  -8.4527 21.4079 -24.1503 0
M  V30 3163 N  -6.2142 18.6127 -24.2663 0
M  V30 3164 C  -4.8541 18.8211 -23.7719 0 CFG=2
M  V30 3165 C  -4.6333 20.1650 -23.0561 0
M  V30 3166 O  -3.8538 20.1968 -22.1058 0
M  V30 3167 C  -3.8750 18.6567 -24.9401 0
M  V30 3168 O  -3.8457 17.3037 -25.3391 0
M  V30 3169 N  -5.3364 21.2302 -23.4812 0
M  V30 3170 C  -5.2875 22.5374 -22.8213 0 CFG=2
M  V30 3171 C  -6.0277 22.5281 -21.4725 0
M  V30 3172 O  -5.4820 23.0320 -20.4930 0
M  V30 3173 C  -5.8731 23.6755 -23.7003 0
M  V30 3174 C  -6.0475 25.0050 -22.9370 0
M  V30 3175 C  -5.0196 23.8954 -24.9592 0
M  V30 3176 N  -7.2356 21.9405 -21.4408 0
M  V30 3177 C  -8.0348 21.7807 -20.2243 0 CFG=2
M  V30 3178 C  -7.3650 20.8317 -19.2141 0
M  V30 3179 O  -7.5358 21.0371 -18.0142 0
M  V30 3180 C  -9.4630 21.3116 -20.5332 0
M  V30 3181 S  -10.3785 22.6170 -21.3954 0
M  V30 3182 N  -6.5650 19.8653 -19.7056 0
M  V30 3183 C  -5.6796 19.0380 -18.8916 0 CFG=2
M  V30 3184 C  -4.6040 19.8624 -18.1683 0
M  V30 3185 O  -4.4434 19.6684 -16.9663 0
M  V30 3186 C  -5.0996 17.8634 -19.7091 0
M  V30 3187 C  -4.2314 16.9260 -18.8485 0
M  V30 3188 C  -4.1534 15.4743 -19.3529 0
M  V30 3189 N  -3.5123 14.6053 -18.3496 0
M  V30 3190 C  -4.0599 14.1887 -17.1894 0
M  V30 3191 N  -5.3333 14.4553 -16.8657 0
M  V30 3192 N  -3.3115 13.4997 -16.3194 0 CHG=1
M  V30 3193 N  -3.9357 20.7944 -18.8737 0
M  V30 3194 C  -2.9684 21.7158 -18.2672 0 CFG=2
M  V30 3195 C  -3.6066 22.6659 -17.2429 0
M  V30 3196 O  -3.0679 22.7838 -16.1460 0
M  V30 3197 C  -2.2127 22.5369 -19.3312 0
M  V30 3198 C  -1.2545 21.7375 -20.2315 0
M  V30 3199 C  -0.6259 22.6850 -21.2569 0
M  V30 3200 C  -0.1627 20.9739 -19.4532 0
M  V30 3201 N  -4.7491 23.2870 -17.5877 0
M  V30 3202 C  -5.4840 24.2044 -16.7080 0 CFG=2
M  V30 3203 C  -5.9561 23.5719 -15.3803 0
M  V30 3204 O  -6.1023 24.3014 -14.4021 0
M  V30 3205 C  -6.6935 24.8050 -17.4492 0
M  V30 3206 C  -6.3744 25.7868 -18.5898 0
M  V30 3207 S  -7.9019 26.3098 -19.4190 0
M  V30 3208 C  -7.3698 27.6478 -20.5096 0
M  V30 3209 N  -6.1786 22.2474 -15.3625 0
M  V30 3210 C  -6.6420 21.5039 -14.1907 0 CFG=2
M  V30 3211 C  -5.5171 20.8162 -13.3975 0
M  V30 3212 O  -5.7560 20.5000 -12.2323 0
M  V30 3213 C  -7.6963 20.4800 -14.6481 0
M  V30 3214 C  -9.0300 21.1077 -15.1010 0
M  V30 3215 C  -9.8343 21.8529 -14.0157 0
M  V30 3216 C  -10.1339 21.0182 -12.7558 0
M  V30 3217 N  -10.9994 21.7451 -11.8091 0 CHG=1
M  V30 3218 N  -4.3361 20.5979 -14.0050 0
M  V30 3219 C  -3.2016 19.9286 -13.3571 0 CFG=2
M  V30 3220 C  -2.1244 20.9429 -12.9164 0
M  V30 3221 O  -1.8460 21.0006 -11.7193 0
M  V30 3222 C  -2.5676 18.8251 -14.2505 0 CFG=1
M  V30 3223 C  -3.5422 17.6695 -14.5442 0
M  V30 3224 O  -2.0688 19.3225 -15.4790 0
M  V30 3225 N  -1.5633 21.7388 -13.8450 0
M  V30 3226 C  -0.5453 22.7582 -13.5506 0 CFG=2
M  V30 3227 C  -1.1436 24.1593 -13.2856 0
M  V30 3228 O  -0.3958 25.0651 -12.9168 0
M  V30 3229 C  0.5246 22.8642 -14.6812 0 CFG=2
M  V30 3230 C  0.0192 23.4032 -16.0427 0
M  V30 3231 C  1.2776 21.5318 -14.8569 0
M  V30 3232 C  1.1118 24.0628 -16.8941 0
M  V30 3233 N  -2.4663 24.3160 -13.4723 0
M  V30 3234 C  -3.1841 25.5796 -13.3145 0
M  V30 3235 C  -3.1304 26.4003 -14.6176 0
M  V30 3236 O  -2.2502 26.1823 -15.4528 0
M  V30 3237 N  -4.0517 27.3704 -14.8062 0
M  V30 3238 C  -3.9709 28.3175 -15.9271 0 CFG=2
M  V30 3239 C  -2.8452 29.3478 -15.7055 0
M  V30 3240 O  -2.5911 29.7335 -14.5629 0
M  V30 3241 C  -5.3578 28.9704 -15.9160 0
M  V30 3242 C  -5.7264 29.0135 -14.4414 0
M  V30 3243 C  -5.1734 27.6898 -13.9188 0
M  V30 3244 N  -2.2001 29.7861 -16.7968 0
M  V30 3245 C  -1.1931 30.8572 -16.7799 0 CFG=2
M  V30 3246 C  -1.7546 32.2127 -16.3215 0
M  V30 3247 O  -1.0370 32.9736 -15.6732 0
M  V30 3248 C  -0.4792 31.0320 -18.1404 0
M  V30 3249 C  0.2901 29.7826 -18.5788 0
M  V30 3250 O  -0.2180 29.0622 -19.4645 0
M  V30 3251 O  1.3463 29.5230 -17.9609 0 CHG=-1
M  V30 3252 N  -3.0145 32.4841 -16.6884 0
M  V30 3253 C  -3.7218 33.7352 -16.4457 0 CFG=2
M  V30 3254 C  -5.1522 33.3977 -15.9960 0
M  V30 3255 O  -5.7379 32.4401 -16.5029 0
M  V30 3256 C  -3.7291 34.5467 -17.7569 0
M  V30 3257 C  -2.3399 34.8936 -18.3296 0
M  V30 3258 S  -2.3456 35.5112 -20.0296 0
M  V30 3259 C  -2.9012 34.0368 -20.9201 0
M  V30 3260 N  -5.6991 34.1971 -15.0675 0
M  V30 3261 C  -7.0392 33.9995 -14.5153 0 CFG=2
M  V30 3262 C  -7.7321 35.3586 -14.3773 0
M  V30 3263 O  -7.2083 36.2310 -13.6837 0
M  V30 3264 C  -6.9434 33.2177 -13.1830 0
M  V30 3265 C  -8.2571 32.8504 -12.5020 0
M  V30 3266 C  -8.8218 33.6846 -11.5128 0
M  V30 3267 C  -8.9874 31.7230 -12.9331 0
M  V30 3268 C  -10.0379 33.3462 -10.9299 0
M  V30 3269 C  -10.2088 31.4116 -12.3492 0
M  V30 3270 C  -10.7286 32.2164 -11.3456 0
M  V30 3271 N  -8.8980 35.5074 -15.0284 0
M  V30 3272 C  -9.7393 36.7019 -14.9344 0 CFG=2
M  V30 3273 C  -10.6014 36.5803 -13.6659 0
M  V30 3274 O  -11.5387 35.7856 -13.6336 0
M  V30 3275 C  -10.5947 36.8475 -16.2113 0
M  V30 3276 C  -9.8101 36.9224 -17.5386 0
M  V30 3277 C  -10.7722 36.9178 -18.7463 0
M  V30 3278 C  -8.8306 38.1163 -17.5729 0
M  V30 3279 N  -10.2060 37.3093 -12.6124 0
M  V30 3280 C  -10.6391 37.0296 -11.2445 0
M  V30 3281 C  -11.9458 37.7065 -10.8156 0
M  V30 3282 O  -12.3930 37.4175 -9.7084 0
M  V30 3283 N  -12.5439 38.5955 -11.6281 0
M  V30 3284 C  -13.7023 39.4002 -11.2251 0 CFG=2
M  V30 3285 C  -14.8698 39.2116 -12.2084 0
M  V30 3286 O  -14.7930 39.6856 -13.3420 0
M  V30 3287 C  -13.3306 40.9056 -11.1421 0 CFG=1
M  V30 3288 C  -14.4998 41.8553 -10.8294 0
M  V30 3289 O  -12.3665 41.0775 -10.1217 0
M  V30 3290 N  -15.9328 38.5353 -11.7345 0
M  V30 3291 C  -17.2199 38.3735 -12.4155 0 CFG=2
M  V30 3292 C  -17.9926 39.6969 -12.3448 0
M  V30 3293 O  -18.2970 40.1602 -11.2455 0
M  V30 3294 C  -18.0581 37.2278 -11.8017 0
M  V30 3295 S  -19.7084 36.9313 -12.5678 0 CHG=-1
M  V30 3296 N  -18.3048 40.2528 -13.5241 0
M  V30 3297 C  -19.0255 41.5168 -13.6750 0 CFG=2
M  V30 3298 C  -20.5165 41.3402 -13.9875 0
M  V30 3299 O  -21.2416 42.3337 -13.9750 0
M  V30 3300 C  -18.3278 42.3966 -14.7281 0
M  V30 3301 C  -16.8081 42.5159 -14.4980 0
M  V30 3302 C  -16.1612 43.7524 -15.1370 0
M  V30 3303 N  -16.4865 44.9904 -14.4014 0
M  V30 3304 C  -15.8500 46.1741 -14.4834 0
M  V30 3305 N  -16.2706 47.1903 -13.7223 0
M  V30 3306 N  -14.8056 46.3707 -15.3021 0 CHG=1
M  V30 3307 N  -20.9455 40.1008 -14.2661 0
M  V30 3308 C  -22.3104 39.7710 -14.6539 0 CFG=2
M  V30 3309 C  -23.2050 39.5218 -13.4393 0
M  V30 3310 O  -24.2574 40.1458 -13.3310 0
M  V30 3311 C  -22.2674 38.5283 -15.5603 0
M  V30 3312 C  -23.6460 37.9882 -16.0012 0
M  V30 3313 C  -23.5493 36.6262 -16.6874 0
M  V30 3314 N  -22.8624 36.7327 -17.9812 0
M  V30 3315 C  -22.2608 35.7613 -18.6802 0
M  V30 3316 N  -22.2152 34.5024 -18.2340 0
M  V30 3317 N  -21.7027 36.0663 -19.8571 0 CHG=1
M  V30 3318 N  -22.8163 38.5330 -12.6239 0
M  V30 3319 C  -23.7203 37.8537 -11.7061 0 CFG=2
M  V30 3320 C  -23.8044 38.5870 -10.3574 0
M  V30 3321 O  -22.8001 39.1532 -9.9228 0
M  V30 3322 C  -23.2636 36.4020 -11.4877 0
M  V30 3323 S  -23.3669 35.4799 -13.0417 0
M  V30 3324 N  -24.9806 38.5177 -9.6900 0
M  V30 3325 C  -25.1251 38.9813 -8.2994 0 CFG=2
M  V30 3326 C  -24.3268 38.0820 -7.3375 0
M  V30 3327 O  -24.1528 36.8986 -7.6342 0
M  V30 3328 C  -26.6371 38.8912 -8.0777 0
M  V30 3329 C  -27.0742 37.7004 -8.9085 0
M  V30 3330 C  -26.1951 37.8288 -10.1427 0
M  V30 3331 N  -23.8123 38.6679 -6.2432 0
M  V30 3332 C  -22.8177 38.0424 -5.3638 0 CFG=2
M  V30 3333 C  -23.1532 36.6422 -4.8196 0
M  V30 3334 O  -22.2203 35.8616 -4.6672 0
M  V30 3335 C  -22.4463 38.9860 -4.2152 0
M  V30 3336 N  -24.4408 36.3111 -4.6008 0
M  V30 3337 C  -24.8838 34.9677 -4.1995 0 CFG=2
M  V30 3338 C  -24.4759 33.8724 -5.1986 0
M  V30 3339 O  -23.9518 32.8441 -4.7754 0
M  V30 3340 C  -26.4119 34.9072 -4.0125 0
M  V30 3341 C  -27.0119 35.9001 -2.9965 0
M  V30 3342 C  -27.7008 37.1211 -3.6216 0
M  V30 3343 O  -27.2420 37.5938 -4.6845 0
M  V30 3344 O  -28.6897 37.5773 -3.0120 0 CHG=-1
M  V30 3345 N  -24.7072 34.1320 -6.4976 0
M  V30 3346 C  -24.3263 33.2620 -7.6111 0 CFG=2
M  V30 3347 C  -22.8040 33.1566 -7.7714 0
M  V30 3348 O  -22.3136 32.0481 -7.9859 0
M  V30 3349 C  -24.9658 33.7287 -8.9542 0 CFG=2
M  V30 3350 C  -26.4882 33.4866 -8.9311 0
M  V30 3351 C  -24.3530 33.0953 -10.2265 0
M  V30 3352 C  -27.2765 34.2178 -10.0255 0
M  V30 3353 N  -22.0957 34.2930 -7.6436 0
M  V30 3354 C  -20.6406 34.3454 -7.7568 0 CFG=2
M  V30 3355 C  -19.9543 33.5458 -6.6368 0
M  V30 3356 O  -19.1268 32.6996 -6.9558 0
M  V30 3357 C  -20.0715 35.7867 -7.7466 0
M  V30 3358 C  -18.5374 35.8006 -7.8797 0
M  V30 3359 C  -20.6745 36.6471 -8.8638 0
M  V30 3360 N  -20.3494 33.7845 -5.3735 0
M  V30 3361 C  -19.8537 33.0830 -4.1834 0 CFG=2
M  V30 3362 C  -20.1446 31.5702 -4.2038 0
M  V30 3363 O  -19.3009 30.8065 -3.7323 0
M  V30 3364 C  -20.3531 33.7011 -2.8491 0
M  V30 3365 C  -20.0333 35.1886 -2.5953 0
M  V30 3366 O  -19.0853 35.7193 -3.2188 0
M  V30 3367 O  -20.6744 35.7468 -1.6757 0 CHG=-1
M  V30 3368 N  -21.2934 31.1617 -4.7782 0
M  V30 3369 C  -21.6675 29.7563 -4.9639 0 CFG=2
M  V30 3370 C  -20.7118 29.0258 -5.9242 0
M  V30 3371 O  -20.1396 28.0130 -5.5226 0
M  V30 3372 C  -23.1133 29.5853 -5.5055 0 CFG=1
M  V30 3373 C  -23.5209 28.1466 -5.8744 0
M  V30 3374 O  -24.0318 30.0521 -4.5414 0
M  V30 3375 N  -20.5483 29.5463 -7.1560 0
M  V30 3376 C  -19.6839 28.9271 -8.1649 0 CFG=2
M  V30 3377 C  -18.1839 29.0837 -7.8638 0
M  V30 3378 O  -17.4086 28.2142 -8.2586 0
M  V30 3379 C  -19.9568 29.4200 -9.6070 0
M  V30 3380 C  -21.4004 29.1099 -10.0189 0
M  V30 3381 C  -19.5926 30.8900 -9.8920 0
M  V30 3382 N  -17.8123 30.1491 -7.1314 0
M  V30 3383 C  -16.4620 30.3904 -6.6317 0 CFG=2
M  V30 3384 C  -15.9766 29.2516 -5.7229 0
M  V30 3385 O  -14.8926 28.7223 -5.9588 0
M  V30 3386 C  -16.3770 31.7764 -5.9714 0
M  V30 3387 O  -15.0544 32.0966 -5.6140 0
M  V30 3388 N  -16.8322 28.8414 -4.7731 0
M  V30 3389 C  -16.6112 27.6840 -3.9118 0 CFG=2
M  V30 3390 C  -16.7109 26.3336 -4.6481 0
M  V30 3391 O  -15.9421 25.4310 -4.3199 0
M  V30 3392 C  -17.6057 27.7451 -2.7431 0
M  V30 3393 N  -17.6443 26.2125 -5.6116 0
M  V30 3394 C  -17.9501 24.9619 -6.3155 0 CFG=2
M  V30 3395 C  -16.8490 24.5000 -7.2892 0
M  V30 3396 O  -16.5476 23.3066 -7.2985 0
M  V30 3397 C  -19.3199 25.0898 -7.0284 0
M  V30 3398 C  -19.8702 23.8103 -7.7077 0
M  V30 3399 C  -20.1670 22.6881 -6.6957 0
M  V30 3400 C  -21.0779 24.1354 -8.6134 0
M  V30 3401 N  -16.3063 25.4214 -8.1061 0
M  V30 3402 C  -15.4341 25.0813 -9.2381 0 CFG=2
M  V30 3403 C  -14.1993 25.9973 -9.4223 0
M  V30 3404 O  -13.3610 25.6478 -10.2551 0
M  V30 3405 C  -16.2195 25.0475 -10.5884 0
M  V30 3406 C  -17.1608 23.8425 -10.7347 0
M  V30 3407 C  -16.9796 26.3493 -10.8876 0
M  V30 3408 N  -14.0712 27.1146 -8.6774 0
M  V30 3409 C  -12.9555 28.0676 -8.8476 0 CFG=2
M  V30 3410 C  -12.0235 28.1817 -7.6347 0
M  V30 3411 O  -11.1856 29.0804 -7.6438 0
M  V30 3412 C  -13.4750 29.4640 -9.2614 0
M  V30 3413 C  -14.3144 29.4606 -10.5184 0
M  V30 3414 C  -13.7418 29.0033 -11.7193 0
M  V30 3415 C  -15.6630 29.8713 -10.4949 0
M  V30 3416 C  -14.5289 28.9077 -12.8749 0
M  V30 3417 C  -16.4531 29.7686 -11.6534 0
M  V30 3418 C  -15.8863 29.2695 -12.8370 0
M  V30 3419 O  -16.6563 29.1435 -13.9467 0
M  V30 3420 N  -12.1499 27.2999 -6.6263 0
M  V30 3421 C  -11.2753 27.2472 -5.4391 0 CFG=2
M  V30 3422 C  -11.2546 28.5605 -4.6223 0
M  V30 3423 O  -10.2215 28.9225 -4.0587 0
M  V30 3424 C  -9.8354 26.7377 -5.7358 0
M  V30 3425 C  -9.7837 25.4191 -6.5207 0
M  V30 3426 O  -9.6705 25.4880 -7.7655 0
M  V30 3427 O  -10.0161 24.3719 -5.8768 0 CHG=-1
M  V30 3428 N  -12.4051 29.2547 -4.5907 0
M  V30 3429 C  -12.6598 30.5287 -3.9073 0 CFG=2
M  V30 3430 C  -11.8835 31.7246 -4.5104 0
M  V30 3431 O  -11.6832 32.7175 -3.8111 0
M  V30 3432 C  -12.4877 30.3945 -2.3708 0
M  V30 3433 C  -13.4203 29.3385 -1.7675 0
M  V30 3434 N  -12.8734 28.1780 -1.3996 0
M  V30 3435 O  -14.6208 29.5674 -1.6414 0
M  V30 3436 N  -11.4739 31.6284 -5.7901 0
M  V30 3437 C  -10.6934 32.6563 -6.4903 0 CFG=2
M  V30 3438 C  -11.5552 33.6872 -7.2388 0
M  V30 3439 O  -11.0622 34.7912 -7.4719 0
M  V30 3440 C  -9.7390 31.9967 -7.5026 0
M  V30 3441 C  -8.6824 31.0647 -6.8824 0
M  V30 3442 C  -7.6821 30.5215 -7.9186 0
M  V30 3443 C  -8.3224 29.6273 -8.9990 0
M  V30 3444 N  -7.3370 29.1615 -9.9889 0 CHG=1
M  V30 3445 N  -12.7934 33.3283 -7.6257 0
M  V30 3446 C  -13.6918 34.2284 -8.3502 0 CFG=2
M  V30 3447 C  -14.3671 35.2095 -7.3759 0
M  V30 3448 O  -15.0140 34.7801 -6.4213 0
M  V30 3449 C  -14.7046 33.4137 -9.1891 0
M  V30 3450 C  -15.6498 34.2809 -10.0541 0
M  V30 3451 C  -14.8822 35.1154 -11.0975 0
M  V30 3452 C  -16.7517 33.4275 -10.7029 0
M  V30 3453 N  -14.1909 36.5102 -7.6381 0
M  V30 3454 C  -14.7254 37.6006 -6.8270 0 CFG=2
M  V30 3455 C  -15.9005 38.2640 -7.5540 0
M  V30 3456 O  -15.9213 38.3064 -8.7841 0
M  V30 3457 C  -13.6008 38.6226 -6.5503 0
M  V30 3458 C  -12.3829 38.0513 -5.7931 0
M  V30 3459 C  -12.6997 37.4988 -4.3870 0
M  V30 3460 C  -12.2933 36.0248 -4.2140 0
M  V30 3461 N  -12.7168 35.4871 -2.9097 0 CHG=1
M  V30 3462 N  -16.8645 38.7640 -6.7675 0
M  V30 3463 C  -18.0588 39.4371 -7.2689 0 CFG=2
M  V30 3464 C  -17.8006 40.9404 -7.3913 0
M  V30 3465 O  -17.3911 41.5633 -6.4109 0
M  V30 3466 C  -19.2207 39.1674 -6.2993 0
M  V30 3467 N  -18.0844 41.4979 -8.5785 0
M  V30 3468 C  -18.1231 42.9434 -8.7968 0 CFG=2
M  V30 3469 C  -19.4322 43.5420 -8.2620 0
M  V30 3470 O  -19.3896 44.5643 -7.5792 0
M  V30 3471 C  -17.9727 43.2520 -10.2932 0
M  V30 3472 C  -17.9989 44.7215 -10.6205 0
M  V30 3473 C  -17.1665 45.7188 -10.1576 0
M  V30 3474 N  -18.9790 45.2905 -11.4406 0
M  V30 3475 C  -18.7435 46.5942 -11.3904 0
M  V30 3476 N  -17.6811 46.9055 -10.6464 0
M  V30 3477 N  -20.5605 42.8887 -8.5881 0
M  V30 3478 C  -21.8782 43.2409 -8.0734 0 CFG=2
M  V30 3479 C  -22.0297 42.7902 -6.6174 0
M  V30 3480 O  -21.4646 41.7708 -6.2214 0
M  V30 3481 C  -22.9760 42.5877 -8.9371 0
M  V30 3482 C  -23.0399 43.1333 -10.3713 0
M  V30 3483 C  -24.3059 42.6853 -11.1155 0
M  V30 3484 C  -24.3897 43.2993 -12.5226 0
M  V30 3485 N  -25.6156 42.8991 -13.2316 0 CHG=1
M  V30 3486 N  -22.8624 43.5350 -5.8804 0
M  V30 3487 C  -23.3849 43.1636 -4.5648 0 CFG=2
M  V30 3488 C  -24.4117 42.0214 -4.6807 0
M  V30 3489 O  -24.8151 41.6504 -5.7872 0
M  V30 3490 C  -24.0216 44.3875 -3.8539 0
M  V30 3491 C  -23.0929 45.6059 -3.7049 0
M  V30 3492 O  -21.9011 45.4031 -3.3809 0
M  V30 3493 O  -23.6211 46.7353 -3.7995 0 CHG=-1
M  V30 3494 N  -24.8438 41.5000 -3.5201 0
M  V30 3495 C  -25.9901 40.5970 -3.4198 0 CFG=2
M  V30 3496 C  -27.2682 41.3049 -3.8975 0
M  V30 3497 O  -27.5799 42.3837 -3.3919 0
M  V30 3498 C  -26.1701 40.1204 -1.9635 0
M  V30 3499 C  -25.1118 39.1180 -1.4775 0
M  V30 3500 C  -25.4839 38.5218 -0.1076 0
M  V30 3501 C  -24.5287 37.4244 0.3949 0
M  V30 3502 N  -23.2102 37.9506 0.7933 0 CHG=1
M  V30 3503 N  -27.9759 40.6925 -4.8572 0
M  V30 3504 C  -29.2341 41.2189 -5.3877 0 CFG=2
M  V30 3505 C  -30.4207 41.0875 -4.4218 0
M  V30 3506 O  -31.3572 41.8764 -4.5359 0
M  V30 3507 C  -29.5462 40.5367 -6.7282 0
M  V30 3508 O  -29.7659 39.1439 -6.5875 0
M  V30 3509 N  -30.3737 40.0745 -3.5369 0
M  V30 3510 C  -31.4775 39.5814 -2.7068 0 CFG=2
M  V30 3511 C  -32.6198 38.9540 -3.5359 0
M  V30 3512 O  -33.7428 38.8567 -3.0418 0
M  V30 3513 C  -31.9653 40.6657 -1.7250 0
M  V30 3514 N  -32.3064 38.5391 -4.7768 0
M  V30 3515 C  -33.2396 37.9591 -5.7426 0 CFG=2
M  V30 3516 C  -32.7815 36.5692 -6.2086 0
M  V30 3517 O  -33.2706 36.0911 -7.2285 0
M  V30 3518 C  -33.4395 38.9251 -6.9302 0
M  V30 3519 C  -33.9496 40.3090 -6.4911 0
M  V30 3520 C  -34.6211 41.0696 -7.6272 0
M  V30 3521 N  -34.0305 42.1888 -8.0506 0
M  V30 3522 O  -35.6778 40.6599 -8.1014 0
M  V30 3523 N  -31.8665 35.9366 -5.4598 0
M  V30 3524 C  -31.3742 34.5916 -5.7302 0 CFG=2
M  V30 3525 C  -32.0616 33.6436 -4.7434 0
M  V30 3526 O  -31.8562 33.7739 -3.5358 0
M  V30 3527 C  -29.8475 34.5146 -5.6120 0
M  V30 3528 S  -29.1020 35.5673 -6.8859 0
M  V30 3529 N  -32.8864 32.7367 -5.2853 0
M  V30 3530 C  -33.7624 31.8425 -4.5395 0 CFG=2
M  V30 3531 C  -33.5081 30.3788 -4.8977 0
M  V30 3532 O  -33.1799 30.0733 -6.0438 0
M  V30 3533 C  -35.2323 32.1914 -4.8319 0
M  V30 3534 C  -35.6567 33.5667 -4.3625 0
M  V30 3535 C  -35.7476 33.8488 -2.9844 0
M  V30 3536 C  -35.8498 34.6065 -5.2945 0
M  V30 3537 C  -36.0478 35.1347 -2.5587 0
M  V30 3538 C  -36.1660 35.8817 -4.8477 0
M  V30 3539 C  -36.2572 36.1461 -3.4871 0
M  V30 3540 N  -33.7189 29.5022 -3.9070 0
M  V30 3541 C  -33.6354 28.0554 -4.0574 0 CFG=2
M  V30 3542 C  -34.8578 27.3905 -3.4090 0
M  V30 3543 O  -35.3477 27.8598 -2.3841 0
M  V30 3544 C  -32.2888 27.5430 -3.4962 0
M  V30 3545 C  -32.0591 27.7525 -1.9846 0
M  V30 3546 C  -30.7233 27.1634 -1.5096 0
M  V30 3547 C  -30.6055 27.1100 0.0218 0
M  V30 3548 N  -29.3353 26.5041 0.4567 0 CHG=1
M  V30 3549 N  -35.3075 26.2862 -4.0156 0
M  V30 3550 C  -36.3447 25.4018 -3.4940 0 CFG=2
M  V30 3551 C  -35.8696 23.9653 -3.6548 0
M  V30 3552 O  -35.3618 23.6188 -4.7180 0
M  V30 3553 C  -37.6559 25.5874 -4.2767 0
M  V30 3554 C  -38.3792 26.8753 -3.8955 0
M  V30 3555 S  -40.0229 27.1051 -4.6089 0
M  V30 3556 C  -40.9237 25.7929 -3.7415 0
M  V30 3557 N  -36.0834 23.1508 -2.6147 0
M  V30 3558 C  -35.8364 21.7182 -2.6699 0 CFG=2
M  V30 3559 C  -37.1835 21.0291 -2.8886 0
M  V30 3560 O  -38.0249 21.0472 -1.9917 0
M  V30 3561 C  -35.1429 21.2685 -1.3750 0
M  V30 3562 C  -34.6380 19.8456 -1.4433 0
M  V30 3563 C  -33.5388 19.5498 -2.2726 0
M  V30 3564 C  -35.3450 18.7918 -0.8269 0
M  V30 3565 C  -33.1322 18.2372 -2.4231 0
M  V30 3566 C  -34.9013 17.4845 -0.9770 0
M  V30 3567 C  -33.7883 17.2125 -1.7612 0
M  V30 3568 N  -37.3725 20.4734 -4.0915 0
M  V30 3569 C  -38.6343 19.8884 -4.5182 0 CFG=2
M  V30 3570 C  -38.3494 18.8972 -5.6477 0
M  V30 3571 O  -38.1226 19.3246 -6.7777 0
M  V30 3572 C  -39.6068 21.0150 -4.9351 0
M  V30 3573 C  -41.0044 20.5354 -5.2640 0
M  V30 3574 C  -41.4008 20.3385 -6.6003 0
M  V30 3575 C  -41.9135 20.2769 -4.2198 0
M  V30 3576 C  -42.7059 19.9011 -6.8827 0
M  V30 3577 C  -43.2213 19.8447 -4.5059 0
M  V30 3578 C  -43.6220 19.6645 -5.8413 0
M  V30 3579 O  -44.8950 19.2636 -6.1205 0
M  V30 3580 N  -38.3535 17.5953 -5.3199 0
M  V30 3581 C  -38.0542 16.5137 -6.2631 0 CFG=2
M  V30 3582 C  -39.1487 16.2746 -7.3182 0
M  V30 3583 O  -38.8184 15.7732 -8.3914 0
M  V30 3584 C  -37.7499 15.2159 -5.4910 0
M  V30 3585 C  -36.5031 15.3303 -4.5999 0
M  V30 3586 C  -36.0248 13.9753 -4.0643 0
M  V30 3587 C  -34.7999 14.1279 -3.1492 0
M  V30 3588 N  -34.1278 12.8453 -2.8888 0 CHG=1
M  V30 3589 N  -40.4057 16.6480 -7.0125 0
M  V30 3590 C  -41.5563 16.5530 -7.9122 0
M  V30 3591 C  -41.8421 15.1035 -8.3359 0
M  V30 3592 O  -41.7597 14.1885 -7.5161 0
M  V30 3593 N  -42.2003 14.9171 -9.6161 0
M  V30 3594 C  -42.4307 13.6135 -10.2396 0 CFG=2
M  V30 3595 C  -41.7090 13.6114 -11.5923 0
M  V30 3596 O  -42.0726 14.3950 -12.4699 0
M  V30 3597 C  -43.9451 13.3224 -10.4815 0
M  V30 3598 C  -44.2228 12.0534 -11.3183 0
M  V30 3599 C  -44.7209 13.2300 -9.1552 0
M  V30 3600 N  -40.7146 12.7216 -11.7337 0
M  V30 3601 C  -39.9560 12.5544 -12.9677 0 CFG=2
M  V30 3602 C  -40.6883 11.5543 -13.8793 0
M  V30 3603 O  -40.9000 10.4059 -13.4884 0
M  V30 3604 C  -38.5039 12.0414 -12.7235 0 CFG=2
M  V30 3605 C  -37.7154 12.9874 -11.7857 0
M  V30 3606 C  -37.7239 11.8863 -14.0503 0
M  V30 3607 C  -37.9095 12.7342 -10.2831 0
M  V30 3608 N  -41.0228 12.0213 -15.0871 0
M  V30 3609 C  -41.5144 11.2084 -16.1944 0 CFG=2
M  V30 3610 C  -40.4791 11.2842 -17.3303 0
M  V30 3611 O  -39.7917 12.2945 -17.4799 0
M  V30 3612 C  -42.8875 11.7212 -16.7088 0 CFG=1
M  V30 3613 C  -43.9948 11.6132 -15.6508 0
M  V30 3614 O  -42.8395 13.0618 -17.1589 0
M  V30 3615 N  -40.3663 10.1829 -18.0829 0
M  V30 3616 C  -39.3914 10.0116 -19.1567 0 CFG=2
M  V30 3617 C  -40.1242 9.7677 -20.4757 0
M  V30 3618 O  -41.1273 9.0517 -20.4890 0
M  V30 3619 C  -38.4945 8.7983 -18.8350 0
M  V30 3620 C  -37.7020 8.9154 -17.5576 0
M  V30 3621 C  -37.8648 8.3248 -16.3234 0
M  V30 3622 N  -36.5744 9.7100 -17.4458 0
M  V30 3623 C  -36.1154 9.5670 -16.1999 0
M  V30 3624 N  -36.8500 8.7440 -15.4606 0
M  V30 3625 N  -39.5563 10.3075 -21.5644 0
M  V30 3626 C  -39.8953 9.9172 -22.9334 0 CFG=2
M  V30 3627 C  -38.7137 9.1138 -23.5181 0
M  V30 3628 O  -37.9873 8.4631 -22.7643 0
M  V30 3629 C  -40.4157 11.0958 -23.8088 0
M  V30 3630 C  -39.5026 12.3084 -24.0706 0
M  V30 3631 O  -40.0242 13.2553 -24.6974 0
M  V30 3632 O  -38.3014 12.2696 -23.7331 0 CHG=-1
M  V30 3633 N  -38.5659 9.1299 -24.8507 0
M  V30 3634 C  -37.5819 8.3379 -25.5890 0 CFG=2
M  V30 3635 C  -36.0996 8.6986 -25.3398 0
M  V30 3636 O  -35.2631 7.8076 -25.4846 0
M  V30 3637 C  -37.8451 8.4024 -27.1197 0
M  V30 3638 C  -39.1630 7.7031 -27.4932 0
M  V30 3639 C  -37.7821 9.8247 -27.7161 0
M  V30 3640 N  -35.7853 9.9590 -24.9835 0
M  V30 3641 C  -34.3970 10.4327 -24.8806 0 CFG=2
M  V30 3642 C  -34.2059 11.6423 -23.9455 0
M  V30 3643 O  -33.1694 12.3014 -24.0390 0
M  V30 3644 C  -33.8089 10.6536 -26.2996 0
M  V30 3645 O  -34.3901 11.7682 -26.9512 0
M  V30 3646 N  -35.1782 11.9272 -23.0633 0
M  V30 3647 C  -35.1589 13.1115 -22.2030 0 CFG=2
M  V30 3648 C  -36.0738 12.9068 -20.9762 0
M  V30 3649 O  -36.8142 11.9219 -20.9160 0
M  V30 3650 C  -35.5357 14.3381 -23.0705 0
M  V30 3651 O  -35.2333 15.5657 -22.4492 0
M  V30 3652 N  -35.9847 13.8333 -20.0076 0
M  V30 3653 C  -36.7747 13.8297 -18.7763 0 CFG=2
M  V30 3654 C  -37.6402 15.0919 -18.6814 0
M  V30 3655 O  -37.2783 16.1424 -19.2121 0
M  V30 3656 C  -35.8310 13.7371 -17.5693 0
M  V30 3657 N  -38.7729 14.9413 -17.9845 0
M  V30 3658 C  -39.7700 15.9701 -17.7085 0 CFG=2
M  V30 3659 C  -40.1384 15.8780 -16.2163 0
M  V30 3660 O  -40.2367 14.7784 -15.6734 0
M  V30 3661 C  -41.0608 15.7353 -18.5570 0 CFG=2
M  V30 3662 C  -40.8197 15.9192 -20.0708 0
M  V30 3663 C  -42.2858 16.5796 -18.1343 0
M  V30 3664 C  -41.7173 15.0312 -20.9460 0
M  V30 3665 N  -40.3761 17.0389 -15.5963 0
M  V30 3666 C  -40.8301 17.1690 -14.2213 0 CFG=2
M  V30 3667 C  -41.9094 18.2595 -14.1866 0
M  V30 3668 O  -41.5998 19.4306 -13.9597 0
M  V30 3669 C  -39.6215 17.4392 -13.2935 0
M  V30 3670 C  -39.8915 17.1152 -11.8223 0
M  V30 3671 N  -38.9120 16.5153 -11.1487 0
M  V30 3672 O  -40.9531 17.4261 -11.2889 0
M  V30 3673 N  -43.1639 17.8415 -14.4360 0
M  V30 3674 C  -44.3400 18.7160 -14.4399 0 CFG=2
M  V30 3675 C  -44.6622 19.3925 -13.0937 0
M  V30 3676 O  -45.0273 20.5663 -13.1361 0
M  V30 3677 C  -45.5908 18.0041 -14.9979 0
M  V30 3678 C  -45.4039 17.4439 -16.4093 0
M  V30 3679 C  -46.6837 16.8086 -16.9692 0
M  V30 3680 N  -46.5972 16.6239 -18.4271 0
M  V30 3681 C  -47.0517 17.4742 -19.3685 0
M  V30 3682 N  -47.7038 18.6059 -19.0575 0
M  V30 3683 N  -46.8482 17.1823 -20.6586 0 CHG=1
M  V30 3684 N  -44.4730 18.7150 -11.9339 0
M  V30 3685 C  -44.5964 19.3831 -10.6274 0 CFG=2
M  V30 3686 C  -43.5852 20.5120 -10.3617 0
M  V30 3687 O  -43.9776 21.4871 -9.7253 0
M  V30 3688 C  -44.4912 18.2419 -9.6098 0
M  V30 3689 C  -44.9743 17.0260 -10.3676 0
M  V30 3690 C  -44.4006 17.2607 -11.7565 0
M  V30 3691 N  -42.3359 20.3954 -10.8557 0
M  V30 3692 C  -41.3451 21.4780 -10.7826 0 CFG=2
M  V30 3693 C  -41.7278 22.7102 -11.6169 0
M  V30 3694 O  -41.5289 23.8249 -11.1412 0
M  V30 3695 C  -39.9350 20.9910 -11.1608 0
M  V30 3696 C  -39.2355 20.1870 -10.0496 0
M  V30 3697 C  -37.7623 19.9163 -10.3622 0
M  V30 3698 N  -36.9978 19.5052 -9.3543 0
M  V30 3699 O  -37.3149 20.0664 -11.4944 0
M  V30 3700 N  -42.3121 22.4934 -12.8086 0
M  V30 3701 C  -42.8938 23.5535 -13.6402 0 CFG=2
M  V30 3702 C  -44.1620 24.1648 -13.0039 0
M  V30 3703 O  -44.4049 25.3543 -13.1918 0
M  V30 3704 C  -43.2078 23.0516 -15.0839 0 CFG=2
M  V30 3705 C  -41.8944 22.7196 -15.8251 0
M  V30 3706 C  -44.0611 24.0209 -15.9381 0
M  V30 3707 C  -42.0873 21.8498 -17.0713 0
M  V30 3708 N  -44.9166 23.3624 -12.2332 0
M  V30 3709 C  -46.0889 23.7994 -11.4785 0
M  V30 3710 C  -45.6914 24.6947 -10.2955 0
M  V30 3711 O  -46.3975 25.6585 -10.0109 0
M  V30 3712 N  -44.5456 24.4179 -9.6484 0
M  V30 3713 C  -43.9425 25.2659 -8.6179 0 CFG=2
M  V30 3714 C  -43.4511 26.6151 -9.1858 0
M  V30 3715 O  -43.6543 27.6378 -8.5315 0
M  V30 3716 C  -42.7890 24.5191 -7.8806 0
M  V30 3717 C  -41.7852 25.4069 -7.1233 0
M  V30 3718 C  -43.3583 23.4736 -6.9067 0
M  V30 3719 N  -42.8686 26.6001 -10.4006 0
M  V30 3720 C  -42.4794 27.8044 -11.1410 0 CFG=2
M  V30 3721 C  -43.6962 28.6489 -11.5645 0
M  V30 3722 O  -43.6394 29.8686 -11.4324 0
M  V30 3723 C  -41.6318 27.4802 -12.4054 0
M  V30 3724 C  -41.4168 28.6787 -13.3553 0
M  V30 3725 C  -40.2708 26.8830 -12.0188 0
M  V30 3726 N  -44.7726 27.9911 -12.0309 0
M  V30 3727 C  -46.0433 28.6154 -12.4030 0 CFG=2
M  V30 3728 C  -46.6680 29.3687 -11.2189 0
M  V30 3729 O  -47.0446 30.5270 -11.3782 0
M  V30 3730 C  -47.0046 27.5368 -12.9496 0
M  V30 3731 C  -48.3234 28.0662 -13.5639 0
M  V30 3732 C  -49.6144 27.4843 -12.9541 0
M  V30 3733 N  -49.6697 26.0090 -13.0032 0
M  V30 3734 C  -49.6599 25.1483 -11.9650 0
M  V30 3735 N  -49.6300 25.5529 -10.6855 0
M  V30 3736 N  -49.6869 23.8339 -12.2188 0 CHG=1
M  V30 3737 N  -46.7052 28.7077 -10.0499 0
M  V30 3738 C  -47.2265 29.2532 -8.8008 0 CFG=2
M  V30 3739 C  -46.3496 30.3944 -8.2373 0
M  V30 3740 O  -46.8867 31.2998 -7.6001 0
M  V30 3741 C  -47.3889 28.0892 -7.7964 0
M  V30 3742 C  -48.4421 28.3654 -6.7058 0
M  V30 3743 C  -49.9081 28.3657 -7.1789 0
M  V30 3744 O  -50.7252 28.9531 -6.4365 0
M  V30 3745 O  -50.2032 27.7914 -8.2526 0 CHG=-1
M  V30 3746 N  -45.0348 30.3592 -8.5208 0
M  V30 3747 C  -44.0866 31.4351 -8.2304 0 CFG=2
M  V30 3748 C  -44.2881 32.6727 -9.1171 0
M  V30 3749 O  -44.2452 33.7772 -8.5849 0
M  V30 3750 C  -42.6425 30.8804 -8.2351 0
M  V30 3751 C  -41.5040 31.8856 -8.1460 0
M  V30 3752 C  -41.0319 32.5248 -9.3114 0
M  V30 3753 C  -40.9810 32.2786 -6.8953 0
M  V30 3754 C  -40.0235 33.4717 -9.2212 0
M  V30 3755 C  -39.9630 33.2192 -6.8265 0
M  V30 3756 C  -39.4836 33.8110 -7.9866 0
M  V30 3757 N  -44.5302 32.4796 -10.4264 0
M  V30 3758 C  -44.7641 33.5576 -11.3952 0 CFG=2
M  V30 3759 C  -46.0303 34.3862 -11.1089 0
M  V30 3760 O  -46.0199 35.5798 -11.4088 0
M  V30 3761 C  -44.8217 32.9881 -12.8319 0
M  V30 3762 C  -43.4590 32.6013 -13.4471 0
M  V30 3763 C  -43.6641 31.8506 -14.7809 0
M  V30 3764 C  -42.5120 33.8095 -13.6002 0
M  V30 3765 N  -47.0760 33.7705 -10.5217 0
M  V30 3766 C  -48.2916 34.4760 -10.0929 0 CFG=2
M  V30 3767 C  -48.0420 35.4417 -8.9154 0
M  V30 3768 O  -48.6185 36.5288 -8.9196 0
M  V30 3769 C  -49.4589 33.5216 -9.7093 0 CFG=1
M  V30 3770 C  -49.8568 32.5379 -10.8175 0
M  V30 3771 O  -49.2471 32.8176 -8.4982 0
M  V30 3772 N  -47.1644 35.0580 -7.9718 0
M  V30 3773 C  -46.7689 35.8866 -6.8310 0 CFG=2
M  V30 3774 C  -45.5809 36.8163 -7.1346 0
M  V30 3775 O  -45.3269 37.7147 -6.3336 0
M  V30 3776 C  -46.4953 34.9774 -5.6106 0
M  V30 3777 C  -47.8132 34.4766 -4.9890 0
M  V30 3778 C  -47.6810 33.7769 -3.6220 0
M  V30 3779 N  -47.4011 32.3326 -3.6950 0
M  V30 3780 C  -48.3152 31.3542 -3.8459 0
M  V30 3781 N  -49.6051 31.6072 -4.1166 0
M  V30 3782 N  -47.9316 30.0821 -3.7054 0 CHG=1
M  V30 3783 N  -44.8872 36.6111 -8.2661 0
M  V30 3784 C  -43.6903 37.3556 -8.6626 0 CFG=2
M  V30 3785 C  -43.7911 37.7143 -10.1595 0
M  V30 3786 O  -43.0510 37.1418 -10.9591 0
M  V30 3787 C  -42.4048 36.5489 -8.3344 0
M  V30 3788 C  -42.2346 36.2221 -6.8507 0
M  V30 3789 N  -42.6842 35.0360 -6.4474 0
M  V30 3790 O  -41.7179 37.0287 -6.0821 0
M  V30 3791 N  -44.7173 38.6296 -10.5408 0
M  V30 3792 C  -44.9273 39.0125 -11.9538 0 CFG=2
M  V30 3793 C  -43.7343 39.6971 -12.6538 0
M  V30 3794 O  -43.6792 39.6601 -13.8824 0
M  V30 3795 C  -46.1635 39.9255 -11.9106 0
M  V30 3796 C  -46.1661 40.5031 -10.5072 0
M  V30 3797 C  -45.6486 39.3450 -9.6650 0
M  V30 3798 N  -42.7849 40.2566 -11.8796 0
M  V30 3799 C  -41.5120 40.7996 -12.3680 0 CFG=2
M  V30 3800 C  -40.5890 39.7495 -13.0178 0
M  V30 3801 O  -39.7230 40.1256 -13.8025 0
M  V30 3802 C  -40.7875 41.4901 -11.2020 0
M  V30 3803 N  -40.8057 38.4644 -12.6965 0
M  V30 3804 C  -40.0654 37.3124 -13.2064 0 CFG=2
M  V30 3805 C  -40.6379 36.7276 -14.5037 0
M  V30 3806 O  -40.1119 35.7241 -14.9771 0
M  V30 3807 C  -40.0112 36.2393 -12.1108 0
M  V30 3808 C  -39.1587 36.5889 -10.9374 0
M  V30 3809 C  -39.3750 37.5722 -10.0347 0
M  V30 3810 C  -37.9054 35.9649 -10.5602 0
M  V30 3811 C  -37.4282 36.5970 -9.3734 0
M  V30 3812 C  -37.1308 34.9152 -11.1024 0
M  V30 3813 N  -38.3616 37.5725 -9.1011 0
M  V30 3814 C  -36.2458 36.1934 -8.7415 0
M  V30 3815 C  -35.9444 34.5022 -10.4770 0
M  V30 3816 C  -35.5141 35.1325 -9.2947 0
M  V30 3817 N  -41.6762 37.3460 -15.0844 0
M  V30 3818 C  -42.2263 36.9373 -16.3789 0 CFG=2
M  V30 3819 C  -41.3498 37.3551 -17.5790 0
M  V30 3820 O  -41.5801 36.8408 -18.6724 0
M  V30 3821 C  -43.6867 37.4098 -16.4821 0
M  V30 3822 C  -44.5905 36.6246 -15.5131 0
M  V30 3823 C  -46.0575 37.0747 -15.5252 0
M  V30 3824 N  -46.9235 36.0312 -14.9422 0
M  V30 3825 C  -47.9346 36.1363 -14.0602 0
M  V30 3826 N  -48.6164 35.0284 -13.7449 0
M  V30 3827 N  -48.2950 37.2984 -13.4979 0 CHG=1
M  V30 3828 N  -40.3219 38.1955 -17.3514 0
M  V30 3829 C  -39.2336 38.4509 -18.3019 0 CFG=2
M  V30 3830 C  -38.0983 37.4032 -18.2161 0
M  V30 3831 O  -37.1403 37.5236 -18.9799 0
M  V30 3832 C  -38.6986 39.8908 -18.1035 0
M  V30 3833 C  -37.8959 40.1250 -16.8077 0
M  V30 3834 C  -37.3331 41.5521 -16.6736 0
M  V30 3835 C  -37.7602 42.2455 -15.3693 0
M  V30 3836 N  -37.0011 43.4871 -15.1358 0 CHG=1
M  V30 3837 N  -38.1867 36.4286 -17.2890 0
M  V30 3838 C  -37.1577 35.4106 -17.0750 0 CFG=2
M  V30 3839 C  -37.0836 34.3817 -18.2049 0
M  V30 3840 O  -38.1018 34.0487 -18.8109 0
M  V30 3841 C  -37.3985 34.6793 -15.7458 0
M  V30 3842 N  -35.8679 33.8593 -18.4064 0
M  V30 3843 C  -35.6009 32.7351 -19.2904 0 CFG=2
M  V30 3844 C  -35.6309 31.4458 -18.4606 0
M  V30 3845 O  -34.8815 31.3238 -17.4927 0
M  V30 3846 C  -34.2162 32.8820 -19.9805 0
M  V30 3847 C  -33.7372 31.6351 -20.7574 0
M  V30 3848 C  -34.2286 34.0986 -20.9194 0
M  V30 3849 N  -36.4838 30.4969 -18.8678 0
M  V30 3850 C  -36.5276 29.1633 -18.2805 0 CFG=2
M  V30 3851 C  -35.3065 28.3558 -18.7459 0
M  V30 3852 O  -34.9885 28.3725 -19.9341 0
M  V30 3853 C  -37.8458 28.4822 -18.6786 0
M  V30 3854 C  -38.0924 27.1270 -18.0410 0
M  V30 3855 C  -38.6673 27.0492 -16.7552 0
M  V30 3856 C  -37.6107 25.9486 -18.6508 0
M  V30 3857 C  -38.8447 25.8126 -16.1515 0
M  V30 3858 C  -37.7757 24.7240 -18.0187 0
M  V30 3859 C  -38.4096 24.6560 -16.7853 0
M  V30 3860 N  -34.6514 27.6598 -17.8100 0
M  V30 3861 C  -33.5213 26.7897 -18.1137 0 CFG=2
M  V30 3862 C  -33.7439 25.4266 -17.4380 0
M  V30 3863 O  -34.3163 25.3580 -16.3533 0
M  V30 3864 C  -32.1460 27.4208 -17.7100 0 CFG=2
M  V30 3865 C  -31.9517 28.7967 -18.4017 0
M  V30 3866 C  -30.9462 26.4988 -18.0350 0
M  V30 3867 C  -30.5995 29.4823 -18.1564 0
M  V30 3868 N  -33.2941 24.3525 -18.0975 0
M  V30 3869 C  -33.2316 23.0136 -17.5172 0 CFG=2
M  V30 3870 C  -32.2001 22.1686 -18.2854 0
M  V30 3871 O  -31.8649 22.5224 -19.4161 0
M  V30 3872 C  -34.6351 22.3640 -17.4565 0
M  V30 3873 O  -35.0536 21.8749 -18.7094 0
M  V30 3874 N  -31.7349 21.0405 -17.7025 0
M  V30 3875 C  -30.8293 20.1134 -18.4107 0 CFG=2
M  V30 3876 C  -31.4508 19.3425 -19.5973 0
M  V30 3877 O  -30.7027 18.6656 -20.2992 0
M  V30 3878 C  -30.3442 19.1537 -17.3049 0
M  V30 3879 C  -30.6509 19.8596 -15.9972 0
M  V30 3880 C  -31.9227 20.6231 -16.3142 0
M  V30 3881 N  -32.7804 19.4233 -19.7873 0
M  V30 3882 C  -33.5400 18.5694 -20.7012 0 CFG=2
M  V30 3883 C  -34.4050 19.3985 -21.6517 0
M  V30 3884 O  -35.1147 20.2993 -21.2081 0
M  V30 3885 C  -34.4208 17.6337 -19.8569 0
M  V30 3886 C  -33.6219 16.6627 -19.0157 0
M  V30 3887 C  -33.4298 16.9302 -17.6482 0
M  V30 3888 C  -33.0297 15.5250 -19.6006 0
M  V30 3889 C  -32.6697 16.0530 -16.8564 0
M  V30 3890 C  -32.2613 14.6492 -18.8118 0
M  V30 3891 C  -32.0904 14.9099 -17.4391 0
M  V30 3892 O  -31.3655 14.0521 -16.6722 0
M  V30 3893 N  -34.3692 19.0348 -22.9436 0
M  V30 3894 C  -35.1774 19.6522 -23.9977 0 CFG=2
M  V30 3895 C  -36.6895 19.3968 -23.8395 0
M  V30 3896 O  -37.4712 20.2837 -24.1692 0
M  V30 3897 C  -34.6680 19.2209 -25.3938 0
M  V30 3898 C  -34.8654 17.7320 -25.7071 0
M  V30 3899 N  -35.8789 17.4095 -26.5135 0
M  V30 3900 O  -34.1024 16.8901 -25.2385 0
M  V30 3901 N  -37.0812 18.2107 -23.3401 0
M  V30 3902 C  -38.4891 17.8551 -23.1610 0 CFG=2
M  V30 3903 C  -39.1242 18.5572 -21.9531 0
M  V30 3904 O  -40.3034 18.8964 -22.0298 0
M  V30 3905 C  -38.6563 16.3314 -23.0903 0
M  V30 3906 O  -38.4325 15.7837 -24.3734 0
M  V30 3907 N  -38.3296 18.8370 -20.9021 0
M  V30 3908 C  -38.7244 19.7149 -19.7983 0 CFG=2
M  V30 3909 C  -38.9749 21.1553 -20.2783 0
M  V30 3910 O  -39.9854 21.7398 -19.8951 0
M  V30 3911 C  -37.6691 19.6537 -18.6686 0
M  V30 3912 C  -37.8919 20.5984 -17.4614 0
M  V30 3913 C  -39.0147 20.1570 -16.5221 0
M  V30 3914 N  -38.9628 20.5893 -15.2623 0
M  V30 3915 O  -39.9412 19.4610 -16.9257 0
M  V30 3916 N  -38.0806 21.6703 -21.1417 0
M  V30 3917 C  -38.2039 22.9791 -21.7906 0 CFG=2
M  V30 3918 C  -39.4310 23.0770 -22.7105 0
M  V30 3919 O  -40.0796 24.1167 -22.7027 0
M  V30 3920 C  -36.9266 23.2997 -22.5938 0
M  V30 3921 C  -35.6741 23.5340 -21.7510 0
M  V30 3922 N  -34.5128 23.3116 -22.3580 0
M  V30 3923 O  -35.7373 23.9240 -20.5883 0
M  V30 3924 N  -39.7544 22.0095 -23.4602 0
M  V30 3925 C  -40.9220 21.9544 -24.3448 0 CFG=2
M  V30 3926 C  -42.2560 22.0763 -23.5864 0
M  V30 3927 O  -43.1366 22.8154 -24.0277 0
M  V30 3928 C  -40.8764 20.6620 -25.1736 0
M  V30 3929 N  -42.3533 21.3875 -22.4368 0
M  V30 3930 C  -43.5020 21.4386 -21.5328 0 CFG=2
M  V30 3931 C  -43.5993 22.7903 -20.7906 0
M  V30 3932 O  -44.7010 23.3241 -20.6614 0
M  V30 3933 C  -43.4503 20.2680 -20.5082 0
M  V30 3934 C  -44.5324 20.3293 -19.4161 0
M  V30 3935 C  -43.5652 18.9083 -21.2227 0
M  V30 3936 N  -42.4463 23.3342 -20.3644 0
M  V30 3937 C  -42.3192 24.6330 -19.7036 0 CFG=2
M  V30 3938 C  -42.6598 25.8244 -20.6099 0
M  V30 3939 O  -43.2219 26.7977 -20.1155 0
M  V30 3940 C  -40.8935 24.7739 -19.1665 0
M  V30 3941 N  -42.3474 25.7205 -21.9132 0
M  V30 3942 C  -42.6654 26.7242 -22.9292 0 CFG=2
M  V30 3943 C  -44.1824 26.9068 -23.1141 0
M  V30 3944 O  -44.6313 28.0450 -23.2344 0
M  V30 3945 C  -41.9695 26.3542 -24.2567 0
M  V30 3946 O  -42.1609 27.3472 -25.2451 0
M  V30 3947 N  -44.9397 25.7949 -23.0979 0
M  V30 3948 C  -46.3964 25.8109 -23.2124 0 CFG=2
M  V30 3949 C  -47.0876 26.2916 -21.9222 0
M  V30 3950 O  -48.0206 27.0883 -22.0169 0
M  V30 3951 N  -46.6413 25.7912 -20.7557 0
M  V30 3952 C  -47.2901 26.0508 -19.4657 0 CFG=2
M  V30 3953 C  -46.9686 27.4465 -18.8881 0
M  V30 3954 O  -47.8749 28.0752 -18.3414 0
M  V30 3955 C  -46.9749 24.9380 -18.4146 0 CFG=2
M  V30 3956 C  -47.5688 23.5857 -18.8779 0
M  V30 3957 C  -47.4712 25.2472 -16.9797 0
M  V30 3958 C  -47.1524 22.3818 -18.0211 0
M  V30 3959 N  -45.7116 27.9060 -19.0157 0
M  V30 3960 C  -45.2464 29.1726 -18.4360 0 CFG=2
M  V30 3961 C  -45.2563 30.3270 -19.4489 0
M  V30 3962 O  -45.4014 31.4746 -19.0294 0
M  V30 3963 C  -43.8179 29.0153 -17.8666 0
M  V30 3964 C  -43.6269 27.8372 -16.8919 0
M  V30 3965 C  -42.1416 27.6799 -16.5432 0
M  V30 3966 C  -44.4923 27.9836 -15.6295 0
M  V30 3967 N  -45.0616 30.0221 -20.7445 0
M  V30 3968 C  -44.9345 31.0206 -21.8100 0
M  V30 3969 C  -43.5427 31.6804 -21.8535 0
M  V30 3970 O  -43.3139 32.5187 -22.7251 0
M  V30 3971 N  -42.6220 31.3219 -20.9373 0
M  V30 3972 C  -41.2570 31.8460 -20.8711 0 CFG=2
M  V30 3973 C  -40.4056 31.3028 -22.0402 0
M  V30 3974 O  -40.5667 30.1307 -22.3889 0
M  V30 3975 C  -40.6020 31.4100 -19.5363 0
M  V30 3976 C  -41.2291 31.9787 -18.2423 0
M  V30 3977 C  -40.5260 31.3901 -17.0031 0
M  V30 3978 C  -41.2682 33.5200 -18.1878 0
M  V30 3979 N  -39.4873 32.1307 -22.5963 0
M  V30 3980 C  -38.4661 31.6488 -23.5472 0 CFG=2
M  V30 3981 C  -37.5075 30.6534 -22.8722 0
M  V30 3982 O  -37.0953 30.8952 -21.7385 0
M  V30 3983 C  -37.7491 32.9331 -23.9915 0
M  V30 3984 C  -37.9066 33.8891 -22.8211 0
M  V30 3985 C  -39.2808 33.5441 -22.2661 0
M  V30 3986 N  -37.2293 29.5323 -23.5519 0
M  V30 3987 C  -36.5188 28.4028 -22.9589 0 CFG=2
M  V30 3988 C  -35.1536 28.1618 -23.6246 0
M  V30 3989 O  -34.9786 28.4233 -24.8153 0
M  V30 3990 C  -37.3667 27.1073 -23.0299 0 CFG=1
M  V30 3991 C  -38.7998 27.3094 -22.5170 0
M  V30 3992 O  -37.4180 26.5356 -24.3262 0
M  V30 3993 N  -34.2232 27.6440 -22.8131 0
M  V30 3994 C  -32.8811 27.2242 -23.1995 0 CFG=2
M  V30 3995 C  -32.5631 25.9193 -22.4670 0
M  V30 3996 O  -32.9179 25.7848 -21.2982 0
M  V30 3997 C  -31.8590 28.2999 -22.7658 0
M  V30 3998 C  -31.9255 29.6377 -23.5218 0
M  V30 3999 C  -31.4166 29.5479 -24.9624 0
M  V30 4000 N  -32.0547 30.2772 -25.8780 0
M  V30 4001 O  -30.4424 28.8547 -25.2454 0
M  V30 4002 N  -31.8219 25.0070 -23.1142 0
M  V30 4003 C  -31.0651 23.9872 -22.3790 0 CFG=2
M  V30 4004 C  -29.8137 24.6536 -21.7765 0
M  V30 4005 O  -29.3977 25.7051 -22.2636 0
M  V30 4006 C  -30.6247 22.7957 -23.2711 0 CFG=1
M  V30 4007 C  -31.7948 22.0640 -23.9441 0
M  V30 4008 O  -29.6620 23.1560 -24.2432 0
M  V30 4009 N  -29.2256 24.0503 -20.7331 0
M  V30 4010 C  -28.0222 24.5972 -20.0977 0 CFG=2
M  V30 4011 C  -26.8232 24.6888 -21.0739 0
M  V30 4012 O  -26.0792 25.6678 -21.0349 0
M  V30 4013 C  -27.5737 23.7647 -18.8750 0
M  V30 4014 C  -26.3872 24.4154 -18.1577 0
M  V30 4015 C  -28.6970 23.5556 -17.8479 0
M  V30 4016 N  -26.7152 23.6944 -21.9679 0
M  V30 4017 C  -25.7301 23.6049 -23.0441 0 CFG=2
M  V30 4018 C  -25.8977 24.7012 -24.1087 0
M  V30 4019 O  -24.8914 25.2799 -24.5173 0
M  V30 4020 C  -25.6658 22.1999 -23.6976 0
M  V30 4021 C  -25.4147 21.0316 -22.7237 0
M  V30 4022 O  -24.3101 20.4511 -22.8048 0
M  V30 4023 O  -26.2870 20.7649 -21.8654 0 CHG=-1
M  V30 4024 N  -27.1477 25.0024 -24.5048 0
M  V30 4025 C  -27.4608 26.0835 -25.4456 0 CFG=2
M  V30 4026 C  -27.4149 27.4902 -24.8132 0
M  V30 4027 O  -27.2621 28.4581 -25.5573 0
M  V30 4028 C  -28.7912 25.7855 -26.1733 0
M  V30 4029 O  -29.9366 25.9990 -25.3719 0
M  V30 4030 N  -27.5233 27.5867 -23.4745 0
M  V30 4031 C  -27.4346 28.8450 -22.7303 0 CFG=2
M  V30 4032 C  -25.9925 29.3672 -22.5764 0
M  V30 4033 O  -25.8392 30.5554 -22.2968 0
M  V30 4034 C  -28.1722 28.7194 -21.3754 0
M  V30 4035 O  -27.4069 28.1082 -20.3549 0
M  V30 4036 N  -24.9695 28.5055 -22.7551 0
M  V30 4037 C  -23.5540 28.8769 -22.6552 0 CFG=2
M  V30 4038 C  -23.1699 30.0015 -23.6394 0
M  V30 4039 O  -23.5436 29.9525 -24.8103 0
M  V30 4040 C  -22.6548 27.6273 -22.7862 0
M  V30 4041 C  -21.1414 27.9395 -22.6952 0
M  V30 4042 C  -20.2906 26.7151 -22.3613 0
M  V30 4043 N  -19.2760 26.4217 -23.1758 0
M  V30 4044 O  -20.5265 26.0599 -21.3515 0
M  V30 4045 N  -22.4542 31.0029 -23.1092 0
M  V30 4046 C  -22.0575 32.2306 -23.7949 0
M  V30 4047 C  -23.0904 33.3672 -23.6456 0
M  V30 4048 O  -22.7049 34.5243 -23.8039 0
M  V30 4049 N  -24.3680 33.0739 -23.3341 0
M  V30 4050 C  -25.4496 34.0678 -23.2374 0 CFG=2
M  V30 4051 C  -25.6536 34.5683 -21.7940 0
M  V30 4052 O  -25.1375 33.9631 -20.8553 0
M  V30 4053 C  -26.7506 33.4428 -23.7769 0
M  V30 4054 O  -26.6469 33.1806 -25.1614 0
M  V30 4055 N  -26.4189 35.6628 -21.6417 0
M  V30 4056 C  -26.7744 36.2418 -20.3441 0 CFG=2
M  V30 4057 C  -28.1885 36.8379 -20.3987 0
M  V30 4058 O  -28.6070 37.3385 -21.4434 0
M  V30 4059 C  -25.7089 37.2745 -19.9137 0
M  V30 4060 C  -25.6561 38.5768 -20.7518 0
M  V30 4061 C  -24.6649 39.6454 -20.2621 0
M  V30 4062 O  -23.7580 39.3239 -19.4622 0
M  V30 4063 O  -24.8426 40.8027 -20.7006 0 CHG=-1
M  V30 4064 N  -28.8899 36.7677 -19.2575 0
M  V30 4065 C  -30.2883 37.1744 -19.0818 0 CFG=2
M  V30 4066 C  -30.4246 37.8535 -17.7095 0
M  V30 4067 O  -29.6680 37.5025 -16.8076 0
M  V30 4068 C  -31.2008 35.9207 -19.1566 0
M  V30 4069 C  -30.8696 34.9397 -20.2743 0
M  V30 4070 C  -31.0146 35.3218 -21.6251 0
M  V30 4071 C  -30.3567 33.6615 -19.9654 0
M  V30 4072 C  -30.6380 34.4392 -22.6563 0
M  V30 4073 C  -29.9766 32.7800 -20.9955 0
M  V30 4074 C  -30.1137 33.1703 -22.3415 0
M  V30 4075 O  -29.7291 32.3226 -23.3384 0
M  V30 4076 N  -31.3858 38.7831 -17.5411 0
M  V30 4077 C  -31.6903 39.4039 -16.2370 0 CFG=2
M  V30 4078 C  -32.1376 38.3786 -15.1907 0
M  V30 4079 O  -31.4870 38.2513 -14.1541 0
M  V30 4080 C  -32.7043 40.5746 -16.2991 0
M  V30 4081 C  -32.2290 41.8557 -17.0045 0
M  V30 4082 O  -31.0070 42.1263 -17.0046 0
M  V30 4083 O  -33.1258 42.6402 -17.3820 0 CHG=-1
M  V30 4084 N  -33.2127 37.6497 -15.5086 0
M  V30 4085 C  -33.7575 36.6093 -14.6512 0 CFG=2
M  V30 4086 C  -33.6390 35.2556 -15.3467 0
M  V30 4087 O  -33.8012 35.1583 -16.5642 0
M  V30 4088 C  -35.2065 36.9526 -14.2787 0
M  V30 4089 C  -35.3231 38.1441 -13.3518 0
M  V30 4090 C  -35.3029 37.9538 -11.9563 0
M  V30 4091 C  -35.4298 39.4461 -13.8792 0
M  V30 4092 C  -35.4415 39.0529 -11.0897 0
M  V30 4093 C  -35.5361 40.5479 -13.0122 0
M  V30 4094 C  -35.5729 40.3503 -11.6212 0
M  V30 4095 O  -35.7368 41.4229 -10.7980 0
M  V30 4096 N  -33.3591 34.2381 -14.5275 0
M  V30 4097 C  -33.2805 32.8419 -14.9264 0 CFG=2
M  V30 4098 C  -34.1931 32.0494 -13.9854 0
M  V30 4099 O  -34.1933 32.3118 -12.7861 0
M  V30 4100 C  -31.8262 32.3071 -14.7924 0
M  V30 4101 C  -31.6804 30.7771 -14.9431 0
M  V30 4102 C  -30.8920 33.0067 -15.7919 0
M  V30 4103 N  -34.9371 31.0768 -14.5225 0
M  V30 4104 C  -35.6598 30.1197 -13.6940 0 CFG=2
M  V30 4105 C  -35.1993 28.7176 -14.1017 0
M  V30 4106 O  -35.6327 28.1898 -15.1235 0
M  V30 4107 C  -37.2040 30.2537 -13.7736 0 CFG=2
M  V30 4108 C  -37.6651 31.6615 -13.3169 0
M  V30 4109 C  -37.8786 29.1664 -12.9138 0
M  V30 4110 C  -39.1702 31.9316 -13.4740 0
M  V30 4111 N  -34.2990 28.1637 -13.2821 0
M  V30 4112 C  -33.7439 26.8331 -13.4367 0 CFG=2
M  V30 4113 C  -34.6131 25.7952 -12.7107 0
M  V30 4114 O  -34.9283 25.9899 -11.5387 0
M  V30 4115 C  -32.2842 26.8360 -12.9462 0
M  V30 4116 C  -31.5619 25.5068 -13.0834 0
M  V30 4117 C  -31.2020 25.0354 -14.3631 0
M  V30 4118 C  -31.3607 24.6726 -11.9632 0
M  V30 4119 C  -30.5992 23.7933 -14.5034 0
M  V30 4120 C  -30.7442 23.4388 -12.1240 0
M  V30 4121 C  -30.3588 23.0044 -13.3863 0
M  V30 4122 N  -34.9369 24.6934 -13.4003 0
M  V30 4123 C  -35.4712 23.4801 -12.7845 0 CFG=2
M  V30 4124 C  -34.4935 22.3420 -13.1175 0
M  V30 4125 O  -34.1849 22.1279 -14.2903 0
M  V30 4126 C  -36.8926 23.1128 -13.2962 0 CFG=1
M  V30 4127 C  -37.9328 24.2196 -13.0737 0
M  V30 4128 O  -36.9182 22.7117 -14.6525 0
M  V30 4129 N  -34.0020 21.6428 -12.0821 0
M  V30 4130 C  -32.9925 20.5916 -12.2356 0 CFG=2
M  V30 4131 C  -33.5463 19.3108 -12.8888 0
M  V30 4132 O  -32.7885 18.6129 -13.5599 0
M  V30 4133 C  -32.3287 20.3099 -10.8757 0
M  V30 4134 C  -31.0301 19.4881 -11.0124 0
M  V30 4135 C  -30.2966 19.2800 -9.6915 0
M  V30 4136 N  -28.9995 18.9819 -9.7665 0
M  V30 4137 O  -30.8900 19.3638 -8.6202 0
M  V30 4138 N  -34.8593 19.0649 -12.7354 0
M  V30 4139 C  -35.6618 18.0082 -13.3654 0 CFG=2
M  V30 4140 C  -35.4428 16.5991 -12.7795 0
M  V30 4141 O  -36.4250 15.9024 -12.5435 0
M  V30 4142 C  -35.4910 17.9301 -14.9077 0 CFG=1
M  V30 4143 C  -36.5704 17.1208 -15.6467 0
M  V30 4144 O  -35.4972 19.2319 -15.4561 0
M  V30 4145 N  -34.1799 16.2052 -12.5535 0
M  V30 4146 C  -33.7656 14.8794 -12.0851 0 CFG=2
M  V30 4147 C  -32.5361 14.9971 -11.1527 0
M  V30 4148 O  -32.0174 16.0984 -10.9681 0
M  V30 4149 C  -33.3875 13.9585 -13.2857 0 CFG=1
M  V30 4150 C  -34.4814 13.8057 -14.3510 0
M  V30 4151 O  -32.2087 14.3837 -13.9465 0
M  V30 4152 N  -32.0785 13.8532 -10.6079 0
M  V30 4153 C  -30.8406 13.7195 -9.8213 0 CFG=2
M  V30 4154 C  -29.7749 12.8596 -10.5314 0
M  V30 4155 O  -28.8697 12.3558 -9.8651 0
M  V30 4156 C  -31.1415 13.1286 -8.4285 0
M  V30 4157 C  -32.1185 13.9566 -7.5915 0
M  V30 4158 C  -32.2915 13.3681 -6.1902 0
M  V30 4159 O  -31.3808 13.5586 -5.3538 0
M  V30 4160 O  -33.3411 12.7259 -5.9735 0 CHG=-1
M  V30 4161 N  -29.8720 12.7017 -11.8615 0
M  V30 4162 C  -28.8798 12.0011 -12.6832 0 CFG=2
M  V30 4163 C  -27.5176 12.7288 -12.7009 0
M  V30 4164 O  -27.4519 13.9214 -12.4063 0
M  V30 4165 C  -29.3662 11.8883 -14.1534 0 CFG=1
M  V30 4166 C  -30.7221 11.1858 -14.3138 0
M  V30 4167 O  -29.3929 13.1430 -14.8078 0
M  V30 4168 N  -26.4596 12.0014 -13.0981 0
M  V30 4169 C  -25.1092 12.5388 -13.2939 0 CFG=2
M  V30 4170 C  -25.0264 13.6935 -14.3128 0
M  V30 4171 O  -24.1468 14.5393 -14.1701 0
M  V30 4172 C  -24.1711 11.3938 -13.7012 0
M  V30 4173 N  -25.9615 13.7297 -15.2807 0
M  V30 4174 C  -26.1474 14.8141 -16.2420 0 CFG=2
M  V30 4175 C  -26.6015 16.1172 -15.5590 0
M  V30 4176 O  -25.8835 17.1115 -15.6359 0
M  V30 4177 C  -27.1225 14.3492 -17.3449 0
M  V30 4178 C  -27.4985 15.3970 -18.3626 0
M  V30 4179 C  -28.6423 16.1654 -18.4214 0
M  V30 4180 N  -26.6702 15.7346 -19.4375 0
M  V30 4181 C  -27.3337 16.6771 -20.0937 0
M  V30 4182 N  -28.5043 16.9753 -19.5324 0
M  V30 4183 N  -27.7647 16.0846 -14.8884 0
M  V30 4184 C  -28.3478 17.2319 -14.1851 0 CFG=2
M  V30 4185 C  -27.5425 17.7105 -12.9588 0
M  V30 4186 O  -27.6493 18.8835 -12.6002 0
M  V30 4187 C  -29.8027 16.8909 -13.8193 0
M  V30 4188 O  -29.8720 15.8845 -12.8323 0
M  V30 4189 N  -26.7609 16.8012 -12.3523 0
M  V30 4190 C  -25.9314 17.0445 -11.1715 0 CFG=2
M  V30 4191 C  -24.4850 17.4381 -11.5185 0
M  V30 4192 O  -23.7349 17.7527 -10.5940 0
M  V30 4193 C  -25.9112 15.8191 -10.2387 0
M  V30 4194 S  -27.5515 15.5798 -9.5177 0
M  V30 4195 N  -24.1058 17.4221 -12.8113 0
M  V30 4196 C  -22.7773 17.8096 -13.2956 0 CFG=2
M  V30 4197 C  -22.4589 19.2615 -12.8958 0
M  V30 4198 O  -23.2274 20.1572 -13.2401 0
M  V30 4199 C  -22.7226 17.6043 -14.8262 0
M  V30 4200 C  -21.3390 17.8400 -15.4332 0
M  V30 4201 N  -20.4257 16.8790 -15.2782 0
M  V30 4202 O  -21.1055 18.8806 -16.0398 0
M  V30 4203 N  -21.3605 19.4525 -12.1471 0
M  V30 4204 C  -20.9912 20.7442 -11.5620 0 CFG=2
M  V30 4205 C  -20.5798 21.8101 -12.5964 0
M  V30 4206 O  -20.7397 22.9920 -12.3005 0
M  V30 4207 C  -19.8624 20.6130 -10.5037 0
M  V30 4208 C  -20.3122 19.7551 -9.3082 0
M  V30 4209 C  -18.5067 20.1325 -11.0598 0
M  V30 4210 N  -20.1150 21.3900 -13.7891 0
M  V30 4211 C  -19.8296 22.2878 -14.9135 0 CFG=2
M  V30 4212 C  -21.1146 22.7966 -15.5694 0
M  V30 4213 O  -21.1802 23.9743 -15.9183 0
M  V30 4214 C  -18.9642 21.5908 -15.9823 0
M  V30 4215 C  -17.5103 21.3670 -15.5809 0
M  V30 4216 N  -16.6287 21.4543 -16.5707 0
M  V30 4217 O  -17.1805 21.1245 -14.4224 0
M  V30 4218 N  -22.1101 21.9040 -15.7043 0
M  V30 4219 C  -23.4478 22.2393 -16.1742 0 CFG=2
M  V30 4220 C  -24.1465 23.1719 -15.1797 0
M  V30 4221 O  -24.6186 24.2286 -15.5808 0
M  V30 4222 C  -24.2434 20.9471 -16.4601 0
M  V30 4223 C  -25.6050 21.1929 -17.1368 0
M  V30 4224 C  -26.2704 19.9574 -17.7671 0
M  V30 4225 N  -25.5702 19.5096 -18.9877 0
M  V30 4226 C  -24.6306 18.5543 -19.1364 0
M  V30 4227 N  -24.2186 17.7673 -18.1331 0
M  V30 4228 N  -24.0783 18.3815 -20.3422 0 CHG=1
M  V30 4229 N  -24.1278 22.8092 -13.8892 0
M  V30 4230 C  -24.7425 23.5948 -12.8273 0 CFG=2
M  V30 4231 C  -24.1075 24.9872 -12.6363 0
M  V30 4232 O  -24.8533 25.9375 -12.4064 0
M  V30 4233 C  -24.7953 22.7630 -11.5349 0
M  V30 4234 C  -25.6658 23.3895 -10.4679 0
M  V30 4235 C  -27.0561 23.4856 -10.6848 0
M  V30 4236 C  -25.0965 24.0084 -9.3372 0
M  V30 4237 C  -27.8497 24.1714 -9.7805 0
M  V30 4238 C  -25.9149 24.6551 -8.4237 0
M  V30 4239 C  -27.2834 24.7406 -8.6493 0
M  V30 4240 N  -22.7770 25.0952 -12.8296 0
M  V30 4241 C  -22.0334 26.3575 -12.9133 0 CFG=2
M  V30 4242 C  -22.5733 27.2460 -14.0461 0
M  V30 4243 O  -22.9586 28.3761 -13.7566 0
M  V30 4244 C  -20.5153 26.0637 -13.0355 0
M  V30 4245 C  -19.6452 27.2832 -13.3765 0
M  V30 4246 N  -18.7425 27.1397 -14.3437 0
M  V30 4247 O  -19.7758 28.3434 -12.7730 0
M  V30 4248 N  -22.6238 26.7146 -15.2837 0
M  V30 4249 C  -23.1704 27.4078 -16.4544 0 CFG=2
M  V30 4250 C  -24.6222 27.8642 -16.2275 0
M  V30 4251 O  -24.8789 29.0521 -16.3781 0
M  V30 4252 C  -23.0748 26.5648 -17.7625 0
M  V30 4253 C  -23.8821 27.1089 -18.9641 0
M  V30 4254 C  -21.6125 26.4122 -18.1999 0
M  V30 4255 N  -25.5083 26.9481 -15.8003 0
M  V30 4256 C  -26.9326 27.1892 -15.5540 0 CFG=2
M  V30 4257 C  -27.2316 28.4149 -14.6785 0
M  V30 4258 O  -28.0518 29.2414 -15.0804 0
M  V30 4259 C  -27.5695 25.9380 -14.9305 0
M  V30 4260 N  -26.5469 28.5206 -13.5241 0
M  V30 4261 C  -26.8073 29.5849 -12.5564 0 CFG=2
M  V30 4262 C  -26.1052 30.9203 -12.8625 0
M  V30 4263 O  -26.6199 31.9596 -12.4525 0
M  V30 4264 C  -26.5576 29.1526 -11.0828 0 CFG=2
M  V30 4265 C  -25.0787 28.9676 -10.6638 0
M  V30 4266 C  -27.4138 27.9152 -10.7416 0
M  V30 4267 C  -24.9043 28.7856 -9.1477 0
M  V30 4268 N  -24.9929 30.8850 -13.6133 0
M  V30 4269 C  -24.2228 32.0707 -14.0036 0 CFG=2
M  V30 4270 C  -24.7043 32.7314 -15.3144 0
M  V30 4271 O  -24.0126 33.6156 -15.8187 0
M  V30 4272 C  -22.7162 31.7500 -14.1373 0 CFG=1
M  V30 4273 C  -22.0875 31.3197 -12.8095 0
M  V30 4274 O  -22.4996 30.7565 -15.1201 0
M  V30 4275 N  -25.8881 32.3571 -15.8282 0
M  V30 4276 C  -26.5466 33.1030 -16.9068 0 CFG=2
M  V30 4277 C  -27.2601 34.3661 -16.3807 0
M  V30 4278 O  -27.4419 35.3075 -17.1487 0
M  V30 4279 C  -27.5445 32.2018 -17.6619 0
M  V30 4280 C  -27.0268 30.8780 -18.2568 0
M  V30 4281 C  -25.7791 30.9453 -19.1613 0
M  V30 4282 N  -24.4992 31.0080 -18.4375 0
M  V30 4283 C  -23.2759 31.2811 -18.9182 0
M  V30 4284 N  -23.0892 31.7698 -20.1464 0
M  V30 4285 N  -22.2069 31.0440 -18.1510 0 CHG=1
M  V30 4286 N  -27.6490 34.3659 -15.0937 0
M  V30 4287 C  -28.3870 35.4416 -14.4360 0 CFG=2
M  V30 4288 C  -27.5179 36.6715 -14.1337 0
M  V30 4289 O  -26.4438 36.5248 -13.5518 0
M  V30 4290 C  -28.9895 34.8905 -13.1408 0
M  V30 4291 N  -28.0386 37.8561 -14.4920 0
M  V30 4292 C  -27.4656 39.1615 -14.1675 0 CFG=2
M  V30 4293 C  -28.0691 39.7731 -12.8947 0
M  V30 4294 O  -27.3676 40.5349 -12.2298 0
M  V30 4295 C  -27.6818 40.1487 -15.3325 0
M  V30 4296 C  -26.7932 39.9110 -16.5575 0
M  V30 4297 C  -26.9863 40.9911 -17.6335 0
M  V30 4298 C  -28.2153 40.7623 -18.5263 0
M  V30 4299 N  -28.4746 41.9207 -19.3996 0 CHG=1
M  V30 4300 N  -29.3474 39.4769 -12.6022 0
M  V30 4301 C  -30.1105 40.1242 -11.5352 0 CFG=2
M  V30 4302 C  -30.6279 39.0926 -10.5213 0
M  V30 4303 O  -30.3191 39.2416 -9.3438 0
M  V30 4304 C  -31.3096 40.9579 -12.0822 0
M  V30 4305 C  -32.1730 41.6075 -10.9793 0
M  V30 4306 C  -30.8377 42.0422 -13.0690 0
M  V30 4307 N  -31.3994 38.0869 -10.9629 0
M  V30 4308 C  -32.0091 37.1204 -10.0506 0
M  V30 4309 C  -32.0079 35.7259 -10.6713 0
M  V30 4310 O  -31.9099 35.5676 -11.8881 0
M  V30 4311 N  -32.1748 34.7114 -9.8107 0
M  V30 4312 C  -32.3667 33.3245 -10.2182 0 CFG=2
M  V30 4313 C  -33.2679 32.5598 -9.2350 0
M  V30 4314 O  -33.1819 32.7824 -8.0330 0
M  V30 4315 C  -31.0308 32.5591 -10.4060 0 CFG=2
M  V30 4316 C  -31.2595 31.1344 -10.9595 0
M  V30 4317 C  -30.1655 32.5210 -9.1321 0
M  V30 4318 C  -30.0326 30.5439 -11.6334 0
M  V30 4319 N  -34.1087 31.6674 -9.7734 0
M  V30 4320 C  -34.8811 30.6886 -9.0181 0 CFG=2
M  V30 4321 C  -34.3608 29.3081 -9.4291 0
M  V30 4322 O  -34.3555 29.0078 -10.6186 0
M  V30 4323 C  -36.3829 30.8655 -9.3348 0
M  V30 4324 C  -37.3164 29.8035 -8.7047 0
M  V30 4325 C  -37.2801 29.8358 -7.1637 0
M  V30 4326 C  -38.7501 29.9361 -9.2488 0
M  V30 4327 N  -33.9447 28.4991 -8.4480 0
M  V30 4328 C  -33.4299 27.1495 -8.6575 0 CFG=2
M  V30 4329 C  -34.3541 26.1601 -7.9447 0
M  V30 4330 O  -34.2767 26.0380 -6.7243 0
M  V30 4331 C  -31.9903 27.0148 -8.1319 0
M  V30 4332 S  -30.8168 27.6208 -9.3698 0
M  V30 4333 N  -35.1906 25.4486 -8.7159 0
M  V30 4334 C  -35.9998 24.3435 -8.2064 0 CFG=2
M  V30 4335 C  -35.1540 23.0609 -8.3412 0
M  V30 4336 O  -34.9869 22.5310 -9.4396 0
M  V30 4337 C  -37.3463 24.1676 -8.9650 0 CFG=2
M  V30 4338 C  -38.1012 25.4969 -9.2043 0
M  V30 4339 C  -38.2578 23.1564 -8.2420 0
M  V30 4340 C  -38.3717 26.3371 -7.9488 0
M  V30 4341 N  -34.5756 22.6406 -7.2111 0
M  V30 4342 C  -33.5660 21.5944 -7.1205 0 CFG=2
M  V30 4343 C  -34.1767 20.2434 -6.7575 0
M  V30 4344 O  -35.1299 20.1778 -5.9820 0
M  V30 4345 C  -32.5266 21.9959 -6.0546 0
M  V30 4346 C  -31.7576 23.2817 -6.3939 0
M  V30 4347 S  -30.8625 23.2301 -7.9703 0
M  V30 4348 C  -29.4777 22.1712 -7.4890 0
M  V30 4349 N  -33.5442 19.1941 -7.2933 0
M  V30 4350 C  -33.8185 17.8006 -6.9716 0 CFG=2
M  V30 4351 C  -32.7061 17.2430 -6.0667 0
M  V30 4352 O  -33.0119 16.4802 -5.1543 0
M  V30 4353 C  -33.8755 16.9918 -8.2779 0
M  V30 4354 O  -34.9354 17.4015 -9.1136 0
M  V30 4355 N  -31.4451 17.6246 -6.3419 0
M  V30 4356 C  -30.2394 17.1636 -5.6556 0 CFG=2
M  V30 4357 C  -30.0082 17.9795 -4.3769 0
M  V30 4358 O  -29.9691 19.2087 -4.4430 0
M  V30 4359 C  -29.0152 17.2672 -6.5938 0
M  V30 4360 C  -27.6695 16.7582 -6.0446 0
M  V30 4361 O  -27.6684 15.8390 -5.1947 0
M  V30 4362 O  -26.6437 17.2283 -6.5813 0 CHG=-1
M  V30 4363 N  -29.8387 17.2693 -3.2489 0
M  V30 4364 C  -29.5908 17.8562 -1.9321 0 CFG=2
M  V30 4365 C  -28.1981 18.4998 -1.8209 0
M  V30 4366 O  -28.0796 19.5405 -1.1762 0
M  V30 4367 C  -29.8282 16.7836 -0.8439 0
M  V30 4368 C  -29.6804 17.2648 0.6145 0
M  V30 4369 C  -30.5877 18.4581 0.9661 0
M  V30 4370 N  -30.4947 18.8151 2.3891 0
M  V30 4371 C  -31.1497 18.2722 3.4296 0
M  V30 4372 N  -32.0474 17.2872 3.2726 0
M  V30 4373 N  -30.8890 18.7327 4.6592 0 CHG=1
M  V30 4374 N  -27.1909 17.8812 -2.4640 0
M  V30 4375 C  -25.7989 18.3316 -2.5029 0 CFG=2
M  V30 4376 C  -25.6841 19.7417 -3.1127 0
M  V30 4377 O  -25.2501 20.6603 -2.4170 0
M  V30 4378 C  -24.8969 17.2831 -3.2114 0
M  V30 4379 C  -23.3922 17.5892 -3.3279 0
M  V30 4380 O  -22.8643 18.3483 -2.4862 0
M  V30 4381 O  -22.7496 16.9561 -4.1941 0 CHG=-1
M  V30 4382 N  -26.1279 19.8924 -4.3730 0
M  V30 4383 C  -26.1292 21.1746 -5.0778 0 CFG=2
M  V30 4384 C  -27.1048 22.2064 -4.4886 0
M  V30 4385 O  -26.7871 23.3910 -4.5569 0
M  V30 4386 C  -26.3700 20.9661 -6.5854 0
M  V30 4387 C  -25.1667 20.3473 -7.3270 0
M  V30 4388 C  -25.5714 19.8994 -8.7430 0
M  V30 4389 C  -23.9350 21.2804 -7.3354 0
M  V30 4390 N  -28.2268 21.7666 -3.8852 0
M  V30 4391 C  -29.1483 22.6419 -3.1528 0 CFG=2
M  V30 4392 C  -28.4902 23.3082 -1.9304 0
M  V30 4393 O  -28.6063 24.5224 -1.7898 0
M  V30 4394 C  -30.4452 21.8904 -2.7804 0
M  V30 4395 C  -31.3986 22.6710 -1.8895 0
M  V30 4396 C  -31.4144 22.4375 -0.4983 0
M  V30 4397 C  -32.2297 23.6687 -2.4377 0
M  V30 4398 C  -32.2299 23.2146 0.3454 0
M  V30 4399 C  -33.0549 24.4354 -1.5941 0
M  V30 4400 C  -33.0519 24.2164 -0.2046 0
M  V30 4401 O  -33.8490 24.9722 0.6025 0
M  V30 4402 N  -27.7965 22.5230 -1.0882 0
M  V30 4403 C  -27.0541 23.0251 0.0767 0 CFG=2
M  V30 4404 C  -25.8351 23.8891 -0.2959 0
M  V30 4405 O  -25.4813 24.7693 0.4879 0
M  V30 4406 C  -26.6434 21.9054 1.0673 0
M  V30 4407 C  -27.7909 21.1799 1.7946 0
M  V30 4408 O  -28.9165 21.7237 1.8622 0
M  V30 4409 O  -27.4912 20.1264 2.3978 0 CHG=-1
M  V30 4410 N  -25.2451 23.6604 -1.4818 0
M  V30 4411 C  -24.1520 24.4658 -2.0321 0 CFG=2
M  V30 4412 C  -24.5832 25.8465 -2.5570 0
M  V30 4413 O  -23.7410 26.7446 -2.5663 0
M  V30 4414 C  -23.4280 23.6663 -3.1274 0
M  V30 4415 C  -22.4898 22.5882 -2.5651 0
M  V30 4416 C  -22.0088 21.6261 -3.6557 0
M  V30 4417 C  -20.7602 20.8308 -3.2450 0
M  V30 4418 N  -20.4366 19.7820 -4.2287 0 CHG=1
M  V30 4419 N  -25.8600 26.0121 -2.9567 0
M  V30 4420 C  -26.4283 27.3081 -3.3394 0 CFG=2
M  V30 4421 C  -26.4934 28.2432 -2.1258 0
M  V30 4422 O  -27.1635 27.9207 -1.1449 0
M  V30 4423 C  -27.8467 27.1402 -3.9294 0
M  V30 4424 C  -27.9130 26.5479 -5.3473 0
M  V30 4425 C  -29.3622 26.1823 -5.7178 0
M  V30 4426 C  -27.2520 27.4552 -6.3983 0
M  V30 4427 N  -25.8324 29.4035 -2.2408 0
M  V30 4428 C  -25.8256 30.4671 -1.2333 0 CFG=2
M  V30 4429 C  -26.9893 31.4476 -1.4688 0
M  V30 4430 O  -26.8070 32.6633 -1.4175 0
M  V30 4431 C  -24.4386 31.1396 -1.2196 0
M  V30 4432 C  -23.3186 30.1464 -0.8464 0
M  V30 4433 C  -21.9340 30.7881 -0.7990 0
M  V30 4434 N  -20.9009 30.0056 -1.1149 0
M  V30 4435 O  -21.7899 31.9591 -0.4573 0
M  V30 4436 N  -28.1654 30.8695 -1.7538 0
M  V30 4437 C  -29.4081 31.5413 -2.1091 0 CFG=2
M  V30 4438 C  -30.3740 31.4891 -0.9178 0
M  V30 4439 O  -30.2228 30.6454 -0.0317 0
M  V30 4440 C  -30.0344 30.7974 -3.3117 0
M  V30 4441 C  -29.2947 30.7922 -4.6439 0
M  V30 4442 C  -28.0685 31.4636 -4.8429 0
M  V30 4443 C  -29.8563 30.0874 -5.7274 0
M  V30 4444 C  -27.4297 31.4080 -6.0707 0
M  V30 4445 C  -29.2136 30.0632 -6.9543 0
M  V30 4446 C  -27.9987 30.7078 -7.1230 0
M  V30 4447 N  -31.3791 32.3749 -0.9444 0
M  V30 4448 C  -32.4748 32.4060 0.0227 0 CFG=2
M  V30 4449 C  -33.4327 31.2238 -0.2235 0
M  V30 4450 O  -34.0110 31.1285 -1.3041 0
M  V30 4451 C  -33.2721 33.7318 -0.1082 0 CFG=1
M  V30 4452 C  -34.5377 33.8381 0.7647 0
M  V30 4453 O  -32.4216 34.8101 0.2302 0
M  V30 4454 N  -33.5870 30.3377 0.7724 0
M  V30 4455 C  -34.5126 29.2076 0.6846 0 CFG=2
M  V30 4456 C  -35.9844 29.6612 0.7358 0
M  V30 4457 O  -36.3414 30.4626 1.5996 0
M  V30 4458 C  -34.1680 28.1555 1.7572 0
M  V30 4459 O  -34.4173 28.6054 3.0733 0
M  V30 4460 N  -36.7982 29.1202 -0.1834 0
M  V30 4461 C  -38.2516 29.2834 -0.2105 0 CFG=2
M  V30 4462 C  -38.9085 27.9396 0.1374 0
M  V30 4463 O  -38.3567 26.8791 -0.1658 0
M  V30 4464 C  -38.7285 29.7375 -1.6099 0
M  V30 4465 C  -38.0847 31.0118 -2.1828 0
M  V30 4466 C  -38.6010 31.2593 -3.6134 0
M  V30 4467 C  -38.3140 32.2341 -1.2808 0
M  V30 4468 N  -40.0945 28.0252 0.7524 0
M  V30 4469 C  -40.9249 26.8947 1.1543 0 CFG=2
M  V30 4470 C  -41.8736 26.4654 0.0199 0
M  V30 4471 O  -42.2269 27.2731 -0.8414 0
M  V30 4472 N  -42.2665 25.1831 0.0644 0
M  V30 4473 C  -43.1534 24.5295 -0.8986 0 CFG=2
M  V30 4474 C  -44.6253 24.8019 -0.4838 0
M  V30 4475 O  -44.9895 24.4378 0.6360 0
M  V30 4476 C  -42.9360 22.9853 -0.8681 0 CFG=2
M  V30 4477 C  -41.4608 22.5723 -1.1019 0
M  V30 4478 C  -43.8469 22.2300 -1.8629 0
M  V30 4479 C  -41.1178 21.2270 -0.4445 0
M  V30 4480 N  -45.4523 25.4254 -1.3612 0
M  V30 4481 C  -46.9001 25.6328 -1.1122 0 CFG=2
M  V30 4482 C  -47.7842 24.4122 -0.9162 0
M  V30 4483 O  -47.4072 23.2581 -1.1169 0
M  V30 4484 C  -47.3755 26.4432 -2.3377 0
M  V30 4485 C  -46.1233 27.0683 -2.9174 0
M  V30 4486 C  -45.0472 26.0384 -2.6212 0
M  V30 4487 H  2.7734 2.2713 -49.1135 0
M  V30 4488 H  1.8244 3.1327 -48.0689 0
M  V30 4489 H  2.7069 3.9200 -49.2291 0
M  V30 4490 H  3.6763 2.3831 -47.0073 0
M  V30 4491 H  5.1793 3.7819 -49.2779 0
M  V30 4492 H  7.3829 3.5696 -48.1489 0
M  V30 4493 H  6.3837 4.7908 -47.4046 0
M  V30 4494 H  6.5735 3.2193 -46.6256 0
M  V30 4495 H  6.4493 1.7395 -49.4872 0
M  V30 4496 H  5.8228 1.1062 -47.9824 0
M  V30 4497 H  4.7593 1.2796 -49.3797 0
M  V30 4498 H  4.7296 3.7514 -45.2778 0
M  V30 4499 H  3.0911 5.8298 -44.3581 0
M  V30 4500 H  4.4877 6.6013 -45.1091 0
M  V30 4501 H  3.9473 6.7144 -42.2970 0
M  V30 4502 H  6.2989 5.2653 -41.1397 0
M  V30 4503 H  6.5993 7.3287 -39.7722 0
M  V30 4504 H  6.7421 7.6754 -41.4870 0
M  V30 4505 H  5.2666 8.1029 -40.6224 0
M  V30 4506 H  6.0418 4.2252 -39.2724 0
M  V30 4507 H  3.6286 3.3728 -38.3038 0
M  V30 4508 H  6.3185 3.4566 -36.8996 0
M  V30 4509 H  5.7624 2.2470 -37.9957 0
M  V30 4510 H  2.1470 3.9666 -36.7485 0
M  V30 4511 H  2.3405 6.6563 -35.6316 0
M  V30 4512 H  0.1294 6.4042 -34.8824 0
M  V30 4513 H  -1.0873 6.0517 -36.9226 0
M  V30 4514 H  0.4800 6.7448 -37.3356 0
M  V30 4515 H  0.1811 5.0376 -37.5946 0
M  V30 4516 H  -1.2495 4.3716 -35.0208 0
M  V30 4517 H  0.1565 3.4230 -35.4857 0
M  V30 4518 H  0.0524 4.1453 -33.8793 0
M  V30 4519 H  3.6880 3.7779 -34.5627 0
M  V30 4520 H  3.6113 4.6594 -31.7086 0
M  V30 4521 H  4.1628 2.1942 -31.2495 0
M  V30 4522 H  3.8975 1.8710 -32.9362 0
M  V30 4523 H  1.5281 2.6605 -32.6708 0
M  V30 4524 H  1.3089 0.5137 -30.7574 0
M  V30 4525 H  1.1027 0.4691 -32.4941 0
M  V30 4526 H  2.6786 0.1718 -31.7843 0
M  V30 4527 H  0.7398 3.6727 -30.8084 0
M  V30 4528 H  1.3913 2.4345 -29.7336 0
M  V30 4529 H  2.3787 3.7703 -30.1966 0
M  V30 4530 H  5.6907 3.9139 -34.4596 0
M  V30 4531 H  8.0945 4.3068 -32.7102 0
M  V30 4532 H  9.2076 2.6931 -34.4359 0
M  V30 4533 H  7.5798 2.2450 -34.9123 0
M  V30 4534 H  6.8028 1.4323 -32.6420 0
M  V30 4535 H  6.4541 5.4087 -35.5668 0
M  V30 4536 H  6.9311 6.5389 -37.3093 0
M  V30 4537 H  9.4297 7.8311 -37.1985 0
M  V30 4538 H  9.1018 7.6348 -35.5155 0
M  V30 4539 H  7.5251 10.7950 -35.8728 0
M  V30 4540 H  8.8151 9.8663 -35.1551 0
M  V30 4541 H  8.7644 3.9087 -36.5391 0
M  V30 4542 H  10.6833 3.6050 -38.5593 0
M  V30 4543 H  10.0144 1.0744 -38.1256 0
M  V30 4544 H  8.9522 1.7222 -36.8919 0
M  V30 4545 H  10.7952 2.7583 -35.9881 0
M  V30 4546 H  10.4099 3.8161 -40.6667 0
M  V30 4547 H  8.0244 4.1131 -41.9942 0
M  V30 4548 H  10.7381 3.3032 -43.1405 0
M  V30 4549 H  10.3295 4.9051 -42.5860 0
M  V30 4550 H  8.5002 5.0458 -44.3074 0
M  V30 4551 H  8.9670 3.4756 -44.9210 0
M  V30 4552 H  10.6975 5.6322 -47.2450 0
M  V30 4553 H  9.1743 4.8341 -46.9584 0
M  V30 4554 H  6.6708 2.8190 -43.3230 0
M  V30 4555 H  7.3054 -0.0057 -43.6932 0
M  V30 4556 H  4.6299 0.0650 -42.4501 0
M  V30 4557 H  5.4947 -1.8968 -41.3064 0
M  V30 4558 H  6.1063 -1.9568 -42.9341 0
M  V30 4559 H  7.1676 -1.4359 -41.6347 0
M  V30 4560 H  6.7462 0.8988 -40.8148 0
M  V30 4561 H  6.0298 -1.1459 -45.0236 0
M  V30 4562 H  4.1506 0.2447 -46.7823 0
M  V30 4563 H  5.1371 -2.6457 -46.6717 0
M  V30 4564 H  5.7997 -1.3445 -47.6562 0
M  V30 4565 H  3.3600 -2.6554 -47.9505 0
M  V30 4566 H  3.9928 -1.5170 -43.7686 0
M  V30 4567 H  1.3791 -2.6323 -44.2497 0
M  V30 4568 H  1.6589 -3.5198 -41.9420 0
M  V30 4569 H  3.0552 -2.5057 -41.7320 0
M  V30 4570 H  4.2611 -3.7013 -43.5285 0
M  V30 4571 H  4.5568 -5.8342 -42.1735 0
M  V30 4572 H  4.8103 -4.3158 -41.3337 0
M  V30 4573 H  3.3151 -5.2122 -41.0820 0
M  V30 4574 H  3.2091 -5.0654 -44.9707 0
M  V30 4575 H  2.7405 -6.1351 -43.6551 0
M  V30 4576 H  1.6788 -4.8443 -44.1465 0
M  V30 4577 H  -0.5362 -2.0154 -43.5301 0
M  V30 4578 H  -0.8572 -0.0603 -41.3334 0
M  V30 4579 H  -3.0539 0.5858 -42.4707 0
M  V30 4580 H  -2.5729 -0.3340 -43.8619 0
M  V30 4581 H  -0.5599 1.2173 -44.0364 0
M  V30 4582 H  -1.2653 2.2479 -42.8282 0
M  V30 4583 H  -2.0586 3.2469 -44.8658 0
M  V30 4584 H  -3.3732 2.2165 -44.3843 0
M  V30 4585 H  -1.3908 1.0202 -46.1813 0
M  V30 4586 H  -5.2511 1.4296 -47.3714 0
M  V30 4587 H  -4.7449 2.2302 -45.9046 0
M  V30 4588 H  -3.7443 0.1846 -48.5885 0
M  V30 4589 H  -2.1016 -0.0011 -48.0538 0
M  V30 4590 H  -2.6615 -0.6573 -39.9453 0
M  V30 4591 H  -3.5914 -3.4300 -40.1066 0
M  V30 4592 H  -4.4598 -1.1504 -38.2846 0
M  V30 4593 H  -3.2350 -2.3126 -37.9262 0
M  V30 4594 H  -5.4211 -4.1258 -41.1328 0
M  V30 4595 H  -7.0450 -3.9335 -42.8021 0
M  V30 4596 H  -7.0237 -2.1886 -42.7070 0
M  V30 4597 H  -7.2429 -3.9045 -39.6300 0
M  V30 4598 H  -10.1935 -3.9084 -39.5939 0
M  V30 4599 H  -9.7740 -5.1334 -37.4071 0
M  V30 4600 H  -9.1283 -5.9271 -38.8380 0
M  V30 4601 H  -8.0505 -5.0396 -37.7777 0
M  V30 4602 H  -7.5516 -1.9205 -38.3862 0
M  V30 4603 H  -9.1467 -0.3356 -36.5317 0
M  V30 4604 H  -7.2732 1.3848 -37.0582 0
M  V30 4605 H  -6.5883 0.1322 -38.0949 0
M  V30 4606 H  -6.0126 -1.5450 -36.3629 0
M  V30 4607 H  -10.5142 1.3829 -37.0653 0
M  V30 4608 H  -11.3914 1.5828 -39.7721 0
M  V30 4609 H  -12.9903 3.1643 -39.0430 0
M  V30 4610 H  -11.5669 4.6197 -37.5211 0
M  V30 4611 H  -11.7111 3.3901 -36.2991 0
M  V30 4612 H  -14.2213 1.8369 -37.4214 0
M  V30 4613 H  -13.3323 0.7576 -38.4756 0
M  V30 4614 H  -12.7469 1.0692 -36.8454 0
M  V30 4615 H  -13.3546 5.3524 -36.1671 0
M  V30 4616 H  -14.1538 4.7191 -37.5994 0
M  V30 4617 H  -14.1155 3.7747 -36.1101 0
M  V30 4618 H  -8.9152 3.3617 -38.0960 0
M  V30 4619 H  -8.8535 5.5280 -40.1237 0
M  V30 4620 H  -6.9553 6.3450 -38.6444 0
M  V30 4621 H  -7.1863 4.9705 -37.6081 0
M  V30 4622 H  -8.3254 7.0152 -36.6826 0
M  V30 4623 H  -9.3815 5.6885 -37.0016 0
M  V30 4624 H  -10.2796 7.9317 -37.6964 0
M  V30 4625 H  -10.4570 6.6822 -38.8825 0
M  V30 4626 H  -8.0584 8.4841 -38.8890 0
M  V30 4627 H  -10.8854 9.1029 -41.7250 0
M  V30 4628 H  -11.2284 7.9452 -40.4631 0
M  V30 4629 H  -8.8525 10.2047 -41.7678 0
M  V30 4630 H  -7.6515 9.8828 -40.5378 0
M  V30 4631 H  -7.5658 2.4048 -39.6839 0
M  V30 4632 H  -5.9348 1.2534 -40.4980 0
M  V30 4633 H  -5.4701 1.4788 -42.9409 0
M  V30 4634 H  -6.2325 3.0471 -42.9465 0
M  V30 4635 H  -8.3658 1.9511 -42.2182 0
M  V30 4636 H  -7.6428 0.3685 -42.3538 0
M  V30 4637 H  -7.0517 1.2889 -44.8677 0
M  V30 4638 H  -8.2716 2.4701 -44.4526 0
M  V30 4639 H  -9.4822 0.0804 -43.8510 0
M  V30 4640 H  -9.5124 0.9976 -47.8225 0
M  V30 4641 H  -8.3625 1.7950 -46.7821 0
M  V30 4642 H  -11.0056 -0.5343 -46.9368 0
M  V30 4643 H  -10.9693 -0.9204 -45.2399 0
M  V30 4644 H  -2.6871 4.5045 -39.4965 0
M  V30 4645 H  -3.2638 4.4197 -37.2192 0
M  V30 4646 H  -1.7831 3.4732 -37.1280 0
M  V30 4647 H  -4.0353 2.3567 -36.1800 0
M  V30 4648 H  -2.9910 1.4018 -37.2175 0
M  V30 4649 H  -4.8782 1.2063 -38.5097 0
M  V30 4650 H  -5.5598 2.7722 -37.9879 0
M  V30 4651 H  -0.6280 4.2966 -40.2814 0
M  V30 4652 H  0.4839 1.8408 -41.1902 0
M  V30 4653 H  2.6409 3.2475 -41.2187 0
M  V30 4654 H  1.6750 4.5553 -40.5816 0
M  V30 4655 H  0.3865 5.9603 -42.0378 0
M  V30 4656 H  1.9319 2.2036 -43.4991 0
M  V30 4657 H  -0.3131 6.5396 -44.3262 0
M  V30 4658 H  1.1777 2.7968 -45.7619 0
M  V30 4659 H  0.0799 4.9675 -46.1818 0
M  V30 4660 H  1.7981 0.3680 -40.2131 0
M  V30 4661 H  2.7150 0.7795 -37.4179 0
M  V30 4662 H  1.9625 -1.6848 -37.0882 0
M  V30 4663 H  0.9970 -1.5037 -38.5272 0
M  V30 4664 H  -0.2312 0.3823 -37.3666 0
M  V30 4665 H  -1.7832 -1.0635 -36.5935 0
M  V30 4666 H  -0.7114 -2.3229 -37.1871 0
M  V30 4667 H  -0.6854 -1.8813 -35.4928 0
M  V30 4668 H  0.2185 -0.0054 -34.6360 0
M  V30 4669 H  1.8436 -0.0735 -35.2917 0
M  V30 4670 H  0.8365 1.3262 -35.5917 0
M  V30 4671 H  4.8290 0.1708 -37.2730 0
M  V30 4672 H  6.2657 -0.9036 -39.4771 0
M  V30 4673 H  7.2558 0.5667 -37.7601 0
M  V30 4674 H  8.1995 -0.8303 -38.1931 0
M  V30 4675 H  6.4102 -0.2322 -35.5231 0
M  V30 4676 H  7.5852 -2.9206 -39.5239 0
M  V30 4677 H  5.9713 -5.1655 -39.5518 0
M  V30 4678 H  8.1097 -6.5092 -39.6562 0
M  V30 4679 H  9.0174 -5.0676 -39.2713 0
M  V30 4680 H  7.0572 -5.7541 -41.8167 0
M  V30 4681 H  8.0997 -4.0880 -36.9065 0
M  V30 4682 H  7.5552 -6.2347 -35.1524 0
M  V30 4683 H  6.2201 -2.8319 -35.0736 0
M  V30 4684 H  4.4854 -3.3796 -32.8842 0
M  V30 4685 H  3.3702 -1.1553 -33.6284 0
M  V30 4686 H  4.5854 -1.0754 -34.8854 0
M  V30 4687 H  4.8587 -1.2927 -31.6031 0
M  V30 4688 H  3.9726 -3.7390 -36.3619 0
M  V30 4689 H  1.1474 -3.9953 -36.3153 0
M  V30 4690 H  3.1235 -5.1776 -38.3304 0
M  V30 4691 H  2.4953 -3.5507 -38.3967 0
M  V30 4692 H  0.8223 -6.3734 -38.5234 0
M  V30 4693 H  3.8175 -6.3741 -35.8850 0
M  V30 4694 H  2.1903 -8.7034 -35.6958 0
M  V30 4695 H  4.9196 -8.1390 -34.4822 0
M  V30 4696 H  4.6287 -8.7585 -36.0715 0
M  V30 4697 H  4.0780 -11.1119 -36.4482 0
M  V30 4698 H  4.4048 -9.5404 -32.4395 0
M  V30 4699 H  4.1690 -13.4173 -35.5346 0
M  V30 4700 H  4.4262 -11.8359 -31.5336 0
M  V30 4701 H  4.3573 -14.0857 -32.0220 0
M  V30 4702 H  3.6474 -6.6528 -33.1080 0
M  V30 4703 H  2.4744 -7.9732 -30.9642 0
M  V30 4704 H  2.9340 -5.8821 -29.6131 0
M  V30 4705 H  3.3976 -5.0874 -31.0989 0
M  V30 4706 H  1.0339 -5.4787 -33.0229 0
M  V30 4707 H  -1.3051 -5.0824 -31.4029 0
M  V30 4708 H  -0.7340 -4.5351 -34.3465 0
M  V30 4709 H  -0.6184 -3.4027 -33.0277 0
M  V30 4710 H  -3.0460 -3.8282 -35.7782 0
M  V30 4711 H  -3.2377 -3.5824 -31.5673 0
M  V30 4712 H  -5.5021 -2.9491 -32.5100 0
M  V30 4713 H  -0.8076 -7.0119 -34.4775 0
M  V30 4714 H  -3.4457 -7.9428 -34.3877 0
M  V30 4715 H  -2.9003 -9.4910 -36.1934 0
M  V30 4716 H  -2.1833 -7.8896 -37.9057 0
M  V30 4717 H  -3.3631 -7.1923 -36.8132 0
M  V30 4718 H  -1.6759 -6.7549 -36.6649 0
M  V30 4719 H  -0.5921 -9.6216 -37.1840 0
M  V30 4720 H  0.0195 -8.8579 -35.7352 0
M  V30 4721 H  -0.7460 -10.4360 -35.6405 0
M  V30 4722 H  -0.5609 -9.4408 -32.9361 0
M  V30 4723 H  -1.8785 -11.9927 -32.5080 0
M  V30 4724 H  0.0681 -12.5701 -31.1719 0
M  V30 4725 H  0.5299 -9.7165 -30.8926 0
M  V30 4726 H  1.8994 -10.4180 -31.6813 0
M  V30 4727 H  1.6720 -12.6873 -32.9289 0
M  V30 4728 H  0.0761 -12.8628 -33.6265 0
M  V30 4729 H  0.9432 -11.3412 -33.8006 0
M  V30 4730 H  2.2235 -10.4255 -29.2490 0
M  V30 4731 H  0.7636 -11.3843 -29.0207 0
M  V30 4732 H  2.1615 -12.0830 -29.8418 0
M  V30 4733 H  -2.2454 -9.0070 -30.8646 0
M  V30 4734 H  -3.1990 -10.4044 -28.4040 0
M  V30 4735 H  -0.9953 -9.2195 -28.0887 0
M  V30 4736 H  -2.2851 -8.6626 -27.0491 0
M  V30 4737 H  -1.1473 -7.3881 -29.2736 0
M  V30 4738 H  -4.4265 -9.0153 -31.0589 0
M  V30 4739 H  -6.8492 -8.1201 -29.6052 0
M  V30 4740 H  -7.1926 -6.2742 -31.1816 0
M  V30 4741 H  -5.5174 -4.6450 -30.5082 0
M  V30 4742 H  -5.9057 -5.6734 -29.1353 0
M  V30 4743 H  -4.3988 -5.9117 -30.0168 0
M  V30 4744 H  -4.6285 -6.7187 -32.2390 0
M  V30 4745 H  -8.7278 -8.0308 -31.1424 0
M  V30 4746 H  -8.9447 -10.4002 -32.7544 0
M  V30 4747 H  -10.7808 -9.4500 -31.3225 0
M  V30 4748 H  -11.2608 -9.7154 -32.9810 0
M  V30 4749 H  -11.1252 -7.5531 -33.3937 0
M  V30 4750 H  -7.5854 -7.3713 -33.4884 0
M  V30 4751 H  -8.4541 -7.1077 -36.2484 0
M  V30 4752 H  -6.5638 -5.4010 -36.2368 0
M  V30 4753 H  -6.2277 -5.8006 -34.6027 0
M  V30 4754 H  -9.9942 -5.7311 -34.4137 0
M  V30 4755 H  -6.8568 -2.9843 -35.0214 0
M  V30 4756 H  -8.9081 -1.7031 -34.2642 0
M  V30 4757 H  -7.7877 -8.4947 -37.7958 0
M  V30 4758 H  -5.0397 -9.6916 -37.6260 0
M  V30 4759 H  -5.9973 -11.7173 -38.5275 0
M  V30 4760 H  -7.5850 -11.0192 -38.6438 0
M  V30 4761 H  -7.5364 -12.5466 -36.8097 0
M  V30 4762 H  -7.7683 -10.9520 -36.1832 0
M  V30 4763 H  -5.3783 -10.8569 -35.4705 0
M  V30 4764 H  -5.0929 -12.4272 -36.1723 0
M  V30 4765 H  -6.8342 -13.4151 -34.6094 0
M  V30 4766 H  -7.0683 -11.8294 -33.8972 0
M  V30 4767 H  -4.7660 -11.8602 -33.2440 0
M  V30 4768 H  -5.5949 -13.1387 -32.6034 0
M  V30 4769 H  -4.5744 -13.3703 -33.8815 0
M  V30 4770 H  -7.3453 -7.9431 -39.6404 0
M  V30 4771 H  -6.0735 -8.7275 -42.1319 0
M  V30 4772 H  -7.9707 -6.4408 -41.4602 0
M  V30 4773 H  -8.4537 -8.0076 -42.0467 0
M  V30 4774 H  -6.7376 -6.0258 -43.5975 0
M  V30 4775 H  -7.8217 -7.9202 -45.4256 0
M  V30 4776 H  -6.1496 -7.7055 -44.9559 0
M  V30 4777 H  -7.1595 -8.8593 -44.1086 0
M  V30 4778 H  -8.5607 -5.0229 -44.4094 0
M  V30 4779 H  -9.3903 -6.5324 -44.7484 0
M  V30 4780 H  -9.4857 -5.8209 -43.1526 0
M  V30 4781 H  -4.3326 -7.8498 -43.0573 0
M  V30 4782 H  -3.2504 -5.2527 -42.0701 0
M  V30 4783 H  -1.7328 -7.7804 -42.8532 0
M  V30 4784 H  0.3741 -6.4804 -42.4449 0
M  V30 4785 H  -0.4829 -5.9041 -43.8498 0
M  V30 4786 H  -0.5675 -5.0010 -42.3371 0
M  V30 4787 H  -0.7354 -7.5854 -40.5657 0
M  V30 4788 H  -1.8041 -6.2268 -40.2316 0
M  V30 4789 H  -2.4721 -7.8278 -40.5150 0
M  V30 4790 H  -2.8636 -3.8258 -43.6400 0
M  V30 4791 H  -3.3247 -4.5933 -46.4872 0
M  V30 4792 H  -3.9045 -2.2160 -46.7891 0
M  V30 4793 H  -3.5315 -1.8689 -45.1247 0
M  V30 4794 H  -5.3977 -3.2791 -44.3645 0
M  V30 4795 H  -7.2331 -1.7900 -45.0868 0
M  V30 4796 H  -5.7741 -0.8801 -44.7195 0
M  V30 4797 H  -6.2330 -1.1708 -46.3973 0
M  V30 4798 H  -7.0713 -3.7260 -46.5512 0
M  V30 4799 H  -5.4963 -4.1546 -47.1871 0
M  V30 4800 H  -6.1047 -4.9490 -45.7407 0
M  V30 4801 H  -1.8329 -3.9811 -48.0165 0
M  V30 4802 H  0.5845 -2.5243 -47.1933 0
M  V30 4803 H  0.6280 -5.2871 -48.5027 0
M  V30 4804 H  1.0060 -4.9695 -46.8292 0
M  V30 4805 H  2.8399 -5.1389 -48.0782 0
M  V30 4806 H  1.6283 -3.3968 -49.9758 0
M  V30 4807 H  0.4209 -1.3836 -51.6574 0
M  V30 4808 H  2.0835 -3.8485 -52.3767 0
M  V30 4809 H  2.6842 -2.6004 -54.4757 0
M  V30 4810 H  1.0027 -3.0702 -54.4357 0
M  V30 4811 H  1.4549 -1.4012 -54.0911 0
M  V30 4812 H  4.0224 -2.2809 -52.5047 0
M  V30 4813 H  3.0135 -0.9897 -51.8605 0
M  V30 4814 H  3.3838 -2.4062 -50.8812 0
M  V30 4815 H  -0.1431 -4.7798 -50.9702 0
M  V30 4816 H  -2.7555 -4.6782 -52.2921 0
M  V30 4817 H  -2.2547 -7.3643 -52.3140 0
M  V30 4818 H  -0.5883 -6.8404 -52.3464 0
M  V30 4819 H  -1.8116 -5.1656 -55.7031 0
M  V30 4820 H  -1.6597 -4.3943 -54.1457 0
M  V30 4821 H  -3.9853 -5.9437 -48.0691 0
M  V30 4822 H  -6.1913 -5.6347 -48.7705 0
M  V30 4823 H  -6.2820 -7.3753 -48.5680 0
M  V30 4824 H  -6.9410 -6.3408 -50.9568 0
M  V30 4825 H  -5.8626 -7.7326 -50.9224 0
M  V30 4826 H  -4.5101 -6.2647 -52.1584 0
M  V30 4827 H  -5.0814 -4.8352 -51.2868 0
M  V30 4828 H  -3.5204 -7.6374 -46.6717 0
M  V30 4829 H  -2.4125 -10.1256 -47.7982 0
M  V30 4830 H  -1.9103 -10.6179 -45.4109 0
M  V30 4831 H  -2.5969 -9.0932 -44.9402 0
M  V30 4832 H  -0.8909 -8.5723 -48.1140 0
M  V30 4833 H  -0.1621 -9.2014 -43.8934 0
M  V30 4834 H  1.3246 -7.6009 -48.3506 0
M  V30 4835 H  2.0959 -8.2805 -44.1642 0
M  V30 4836 H  3.6581 -7.4391 -45.6717 0
M  V30 4837 H  -4.0555 -10.9856 -48.7860 0
M  V30 4838 H  -5.9967 -12.5129 -47.2296 0
M  V30 4839 H  -7.2022 -10.4739 -47.9861 0
M  V30 4840 H  -7.6159 -9.9373 -50.3323 0
M  V30 4841 H  -5.8860 -9.9188 -50.0508 0
M  V30 4842 H  -6.6273 -11.2785 -50.8839 0
M  V30 4843 H  -9.1272 -11.5407 -49.0181 0
M  V30 4844 H  -8.1652 -12.8972 -49.5774 0
M  V30 4845 H  -8.4315 -12.6581 -47.8555 0
M  V30 4846 H  -6.5055 -14.4755 -48.3063 0
M  V30 4847 H  -4.4500 -15.5365 -49.9336 0
M  V30 4848 H  -7.1775 -16.6844 -49.2181 0
M  V30 4849 H  -5.6851 -16.9159 -48.3323 0
M  V30 4850 H  -4.3587 -18.0599 -50.2570 0
M  V30 4851 H  -4.0881 -15.1956 -52.0144 0
M  V30 4852 H  -6.0372 -14.0580 -53.7760 0
M  V30 4853 H  -4.0445 -14.2751 -55.4363 0
M  V30 4854 H  -3.1218 -14.9581 -54.1258 0
M  V30 4855 H  -2.0862 -11.5046 -53.9247 0
M  V30 4856 H  -1.6686 -13.0917 -54.5228 0
M  V30 4857 H  -5.6223 -17.3060 -52.9076 0
M  V30 4858 H  -6.0495 -18.6264 -55.3876 0
M  V30 4859 H  -6.7049 -20.5244 -53.9934 0
M  V30 4860 H  -5.2832 -19.7410 -53.3265 0
M  V30 4861 H  -6.8674 -19.4936 -52.5816 0
M  V30 4862 H  -10.1723 -17.0301 -56.2351 0
M  V30 4863 H  -11.0700 -18.3057 -58.0733 0
M  V30 4864 H  -10.5596 -19.8357 -57.3666 0
M  V30 4865 H  -8.8023 -17.7013 -58.5729 0
M  V30 4866 H  -8.7991 -19.4219 -58.9632 0
M  V30 4867 H  -7.7436 -19.9545 -56.8506 0
M  V30 4868 H  -7.0344 -18.3728 -57.2303 0
M  V30 4869 H  -11.8090 -16.7259 -54.8634 0
M  V30 4870 H  -13.6012 -18.8273 -54.0316 0
M  V30 4871 H  -13.7108 -17.1175 -53.6776 0
M  V30 4872 H  -10.6584 -17.7002 -52.5413 0
M  V30 4873 H  -11.3889 -19.0204 -50.0229 0
M  V30 4874 H  -8.6809 -17.9492 -50.9174 0
M  V30 4875 H  -9.2554 -19.5765 -51.2121 0
M  V30 4876 H  -8.7008 -18.0079 -48.3830 0
M  V30 4877 H  -11.8954 -17.9925 -48.1969 0
M  V30 4878 H  -11.9307 -15.0511 -48.1616 0
M  V30 4879 H  -14.0717 -16.1069 -47.9369 0
M  V30 4880 H  -13.7002 -15.2931 -46.4608 0
M  V30 4881 H  -9.5367 -17.0053 -47.1894 0
M  V30 4882 H  -9.2887 -16.2626 -44.4084 0
M  V30 4883 H  -7.2186 -17.3554 -46.3421 0
M  V30 4884 H  -5.9099 -17.9730 -44.2449 0
M  V30 4885 H  -5.9813 -16.2472 -44.5005 0
M  V30 4886 H  -7.0240 -17.0000 -43.3036 0
M  V30 4887 H  -7.5939 -19.5139 -45.1575 0
M  V30 4888 H  -8.8508 -18.7662 -44.1817 0
M  V30 4889 H  -9.0725 -18.9513 -45.9146 0
M  V30 4890 H  -9.0653 -14.2312 -43.8204 0
M  V30 4891 H  -7.2969 -12.3159 -45.2703 0
M  V30 4892 H  -8.6792 -10.5968 -44.1208 0
M  V30 4893 H  -10.8423 -10.8934 -45.2856 0
M  V30 4894 H  -9.4796 -11.2268 -46.3374 0
M  V30 4895 H  -10.4265 -12.5562 -45.6764 0
M  V30 4896 H  -9.2927 -11.6952 -42.3013 0
M  V30 4897 H  -7.4386 -14.2617 -42.4260 0
M  V30 4898 H  -6.2432 -12.4302 -40.5745 0
M  V30 4899 H  -6.5728 -15.4605 -40.5072 0
M  V30 4900 H  -7.6908 -14.3088 -39.8738 0
M  V30 4901 H  -4.2244 -11.6831 -40.7310 0
M  V30 4902 H  -2.2698 -12.5613 -42.4986 0
M  V30 4903 H  -2.4693 -10.3030 -41.5111 0
M  V30 4904 H  -1.5533 -9.7076 -39.3357 0
M  V30 4905 H  -2.7908 -10.9266 -39.0746 0
M  V30 4906 H  -1.0973 -11.3612 -38.9881 0
M  V30 4907 H  -0.1239 -9.7396 -41.5134 0
M  V30 4908 H  0.3582 -11.3731 -41.0958 0
M  V30 4909 H  -0.3587 -11.0490 -42.6665 0
M  V30 4910 H  -2.8125 -13.6852 -39.1780 0
M  V30 4911 H  -0.2273 -14.9416 -38.8795 0
M  V30 4912 H  -0.9901 -15.7838 -36.8351 0
M  V30 4913 H  -1.9912 -13.9103 -35.5962 0
M  V30 4914 H  -0.7584 -13.3321 -36.7019 0
M  V30 4915 H  -2.4615 -13.1183 -37.0920 0
M  V30 4916 H  -3.6722 -15.2666 -37.4804 0
M  V30 4917 H  -3.0481 -15.7916 -40.6494 0
M  V30 4918 H  -2.3252 -18.6838 -40.7798 0
M  V30 4919 H  -4.6282 -18.9787 -41.6048 0
M  V30 4920 H  -4.8903 -17.2629 -41.6494 0
M  V30 4921 H  -6.0225 -18.3012 -39.7147 0
M  V30 4922 H  -4.8562 -17.1070 -39.2184 0
M  V30 4923 H  -3.6008 -19.3659 -36.8447 0
M  V30 4924 H  -4.2127 -17.7733 -37.2093 0
M  V30 4925 H  -1.3347 -16.0044 -42.3349 0
M  V30 4926 H  -1.6222 -17.1106 -45.0937 0
M  V30 4927 H  -1.2949 -14.6462 -45.7367 0
M  V30 4928 H  -1.4877 -14.2589 -44.0492 0
M  V30 4929 H  -3.7881 -15.4127 -44.1856 0
M  V30 4930 H  -4.7388 -13.3917 -45.5899 0
M  V30 4931 H  -3.9121 -13.0659 -44.0935 0
M  V30 4932 H  -3.0604 -12.8526 -45.6107 0
M  V30 4933 H  -4.5547 -15.2257 -46.8078 0
M  V30 4934 H  -2.9116 -15.7877 -47.0067 0
M  V30 4935 H  -4.0559 -16.7111 -46.0333 0
M  V30 4936 H  0.0194 -16.7856 -46.5367 0
M  V30 4937 H  2.8071 -16.4758 -45.5782 0
M  V30 4938 H  3.3552 -18.5591 -46.8343 0
M  V30 4939 H  1.7103 -18.7347 -47.3620 0
M  V30 4940 H  -0.1358 -19.2413 -45.6248 0
M  V30 4941 H  4.0877 -19.6841 -44.8490 0
M  V30 4942 H  -0.6485 -20.6882 -43.7040 0
M  V30 4943 H  3.5699 -21.1846 -42.9471 0
M  V30 4944 H  0.1983 -21.9083 -41.9517 0
M  V30 4945 H  4.2931 -15.9802 -47.3683 0
M  V30 4946 H  2.9585 -14.8627 -49.7887 0
M  V30 4947 H  5.6628 -14.3218 -48.5134 0
M  V30 4948 H  4.2870 -13.2576 -48.5562 0
M  V30 4949 H  5.9913 -14.1206 -50.9246 0
M  V30 4950 H  4.3952 -12.0956 -51.9535 0
M  V30 4951 H  4.1604 -13.8113 -52.2134 0
M  V30 4952 H  3.2463 -12.9745 -50.9707 0
M  V30 4953 H  7.1961 -12.2563 -50.6484 0
M  V30 4954 H  5.7834 -11.2279 -50.4743 0
M  V30 4955 H  6.4263 -12.0593 -49.0795 0
M  V30 4956 H  2.8655 -16.1798 -51.4583 0
M  V30 4957 H  3.2622 -18.2444 -52.5239 0
M  V30 4958 H  4.9174 -18.3189 -51.9291 0
M  V30 4959 H  6.5207 -16.9153 -52.8898 0
M  V30 4960 H  6.1034 -16.1803 -55.6874 0
M  V30 4961 H  7.5684 -16.0215 -54.7334 0
M  V30 4962 H  4.6687 -14.4264 -55.8113 0
M  V30 4963 H  5.2920 -11.9157 -54.3299 0
M  V30 4964 H  4.6270 -10.7384 -56.4788 0
M  V30 4965 H  4.5522 -12.2762 -57.2768 0
M  V30 4966 H  6.6516 -11.6648 -57.9123 0
M  V30 4967 H  7.1394 -12.4382 -56.4397 0
M  V30 4968 H  8.1368 -9.4620 -54.1340 0
M  V30 4969 H  6.4836 -10.0662 -54.0838 0
M  V30 4970 H  7.8408 -11.1997 -54.2591 0
M  V30 4971 H  3.0283 -14.3042 -54.5685 0
M  V30 4972 H  0.7343 -12.4705 -54.0646 0
M  V30 4973 H  0.4181 -13.4083 -56.2541 0
M  V30 4974 H  -0.6219 -14.3289 -55.1857 0
M  V30 4975 H  0.3750 -15.9075 -56.1735 0
M  V30 4976 H  -0.6407 -12.9799 -52.3874 0
M  V30 4977 H  0.5782 -14.6214 -50.3068 0
M  V30 4978 H  -0.8713 -13.4311 -48.7911 0
M  V30 4979 H  -1.9390 -12.9439 -50.0746 0
M  V30 4980 H  -1.8133 -10.8338 -50.9985 0
M  V30 4981 H  1.6580 -12.4943 -49.0342 0
M  V30 4982 H  -0.5762 -8.7529 -51.4184 0
M  V30 4983 H  2.9058 -10.3957 -49.4724 0
M  V30 4984 H  2.8568 -8.3124 -50.4771 0
M  V30 4985 H  -0.4211 -16.3380 -49.2044 0
M  V30 4986 H  -3.0349 -17.3584 -50.0936 0
M  V30 4987 H  -2.0633 -19.5977 -50.5644 0
M  V30 4988 H  -0.4609 -18.9724 -50.2547 0
M  V30 4989 H  -3.4032 -18.5834 -52.5588 0
M  V30 4990 H  0.8470 -18.0846 -52.0058 0
M  V30 4991 H  -3.1565 -18.0210 -54.9612 0
M  V30 4992 H  1.1013 -17.5523 -54.4044 0
M  V30 4993 H  -1.6988 -17.5101 -56.6594 0
M  V30 4994 H  -3.9273 -18.9389 -48.6669 0
M  V30 4995 H  -2.9600 -18.8585 -45.9345 0
M  V30 4996 H  -5.3960 -18.6797 -46.5504 0
M  V30 4997 H  -5.0379 -19.8958 -45.3476 0
M  V30 4998 H  -6.9537 -20.6855 -46.9070 0
M  V30 4999 H  -3.2449 -21.1336 -44.7211 0
M  V30 5000 H  -1.0711 -22.7582 -45.3867 0
M  V30 5001 H  -3.4982 -23.2945 -43.6304 0
M  V30 5002 H  -2.0371 -22.4890 -43.1380 0
M  V30 5003 H  -0.7363 -24.5987 -43.5187 0
M  V30 5004 H  -2.2085 -25.4255 -43.9704 0
M  V30 5005 H  -3.2029 -24.8491 -41.7258 0
M  V30 5006 H  -1.6841 -24.1631 -41.2415 0
M  V30 5007 H  -2.0510 -27.0970 -42.0872 0
M  V30 5008 H  -2.1046 -26.5340 -40.4302 0
M  V30 5009 H  0.1318 -25.7609 -40.6347 0
M  V30 5010 H  0.0262 -27.3725 -40.9656 0
M  V30 5011 H  0.2140 -26.2898 -42.1946 0
M  V30 5012 H  -4.4991 -23.1503 -46.3261 0
M  V30 5013 H  -4.1649 -25.8147 -47.4189 0
M  V30 5014 H  -6.5485 -25.2518 -48.3020 0
M  V30 5015 H  -6.4242 -23.7469 -47.4200 0
M  V30 5016 H  -7.3874 -25.4641 -46.2375 0
M  V30 5017 H  -3.5796 -22.6184 -48.7161 0
M  V30 5018 H  -3.7437 -23.6396 -51.5316 0
M  V30 5019 H  -4.2588 -21.1180 -51.9482 0
M  V30 5020 H  -4.5641 -21.0070 -50.2430 0
M  V30 5021 H  -5.9218 -23.6974 -52.9789 0
M  V30 5022 H  -7.0693 -20.9871 -49.9552 0
M  V30 5023 H  -9.1486 -22.1079 -50.8544 0
M  V30 5024 H  -1.4295 -22.6168 -49.2583 0
M  V30 5025 H  0.0878 -20.9438 -50.9541 0
M  V30 5026 H  0.3049 -20.9254 -48.4900 0
M  V30 5027 H  1.8218 -21.0974 -49.2917 0
M  V30 5028 H  1.9548 -23.4873 -48.8029 0
M  V30 5029 H  0.3583 -23.4893 -48.1000 0
M  V30 5030 H  1.0303 -22.2163 -46.2247 0
M  V30 5031 H  2.4687 -21.6115 -46.9775 0
M  V30 5032 H  2.0636 -24.5565 -46.1980 0
M  V30 5033 H  2.8245 -23.3640 -45.1634 0
M  V30 5034 H  4.4810 -22.9976 -46.8389 0
M  V30 5035 H  4.4579 -24.5735 -46.3461 0
M  V30 5036 H  3.8092 -24.1503 -47.8022 0
M  V30 5037 H  2.2803 -24.0031 -53.4247 0
M  V30 5038 H  2.7801 -22.2133 -54.8419 0
M  V30 5039 H  4.4238 -22.4779 -54.2781 0
M  V30 5040 H  3.4019 -20.0429 -53.9855 0
M  V30 5041 H  4.2289 -20.7785 -52.6108 0
M  V30 5042 H  2.1888 -20.3214 -51.5545 0
M  V30 5043 H  1.2534 -20.5562 -53.0421 0
M  V30 5044 H  5.2502 -25.9357 -50.8186 0
M  V30 5045 H  5.7561 -27.5019 -52.3901 0
M  V30 5046 H  7.3277 -26.7313 -52.5223 0
M  V30 5047 H  5.8203 -26.9315 -54.7401 0
M  V30 5048 H  6.6012 -25.3897 -54.3861 0
M  V30 5049 H  4.3286 -24.7194 -54.6125 0
M  V30 5050 H  3.7221 -26.1469 -53.7731 0
M  V30 5051 H  6.8431 -23.4689 -52.9233 0
M  V30 5052 H  8.7058 -22.7865 -50.7080 0
M  V30 5053 H  8.6717 -22.0061 -53.6375 0
M  V30 5054 H  9.5702 -24.2599 -53.0532 0
M  V30 5055 H  10.6530 -23.5398 -51.8996 0
M  V30 5056 H  10.7646 -20.6827 -53.1817 0
M  V30 5057 H  9.3920 -19.9604 -52.4007 0
M  V30 5058 H  10.5299 -20.9176 -51.4554 0
M  V30 5059 H  11.5220 -24.1849 -54.3157 0
M  V30 5060 H  10.8387 -22.6360 -54.7910 0
M  V30 5061 H  12.1025 -22.7063 -53.5613 0
M  V30 5062 H  7.7045 -21.6428 -49.2465 0
M  V30 5063 H  6.8511 -18.9890 -49.7771 0
M  V30 5064 H  4.6939 -20.1449 -50.3598 0
M  V30 5065 H  4.5187 -19.1982 -48.9075 0
M  V30 5066 H  4.7298 -21.9746 -49.1977 0
M  V30 5067 H  6.4084 -17.8152 -47.7568 0
M  V30 5068 H  7.4045 -19.1323 -45.3129 0
M  V30 5069 H  9.3547 -18.0600 -46.2140 0
M  V30 5070 H  8.8219 -17.1475 -44.8409 0
M  V30 5071 H  7.9274 -14.8253 -45.0967 0
M  V30 5072 H  9.1622 -17.1370 -48.5279 0
M  V30 5073 H  7.9848 -12.7909 -46.4797 0
M  V30 5074 H  9.2021 -15.0780 -49.8776 0
M  V30 5075 H  8.6637 -12.9074 -48.8423 0
M  V30 5076 H  3.7393 -17.3091 -43.6674 0
M  V30 5077 H  4.0611 -18.6962 -41.8466 0
M  V30 5078 H  4.3145 -17.1933 -40.9791 0
M  V30 5079 H  6.2636 -19.0300 -40.8731 0
M  V30 5080 H  6.7127 -17.3633 -41.2384 0
M  V30 5081 H  7.6625 -18.4535 -43.1096 0
M  V30 5082 H  6.3367 -19.6229 -43.2233 0
M  V30 5083 H  2.8410 -15.3154 -43.3254 0
M  V30 5084 H  4.4823 -12.9733 -43.5128 0
M  V30 5085 H  2.2539 -11.7882 -43.1359 0
M  V30 5086 H  1.5197 -13.3536 -42.9314 0
M  V30 5087 H  2.2609 -13.9812 -45.2484 0
M  V30 5088 H  0.3464 -13.2097 -46.1467 0
M  V30 5089 H  0.0345 -12.4974 -44.5652 0
M  V30 5090 H  0.7198 -11.5271 -45.8540 0
M  V30 5091 H  2.8372 -11.8204 -46.7307 0
M  V30 5092 H  3.4958 -11.2321 -45.2167 0
M  V30 5093 H  4.1017 -12.7320 -45.9287 0
M  V30 5094 H  2.9890 -14.6791 -40.7333 0
M  V30 5095 H  4.1795 -12.6843 -38.8590 0
M  V30 5096 H  2.7900 -14.0508 -37.1527 0
M  V30 5097 H  1.9988 -14.7841 -38.5283 0
M  V30 5098 H  1.1603 -12.6021 -39.5981 0
M  V30 5099 H  6.1853 -13.1406 -38.2146 0
M  V30 5100 H  6.8027 -15.5315 -36.8103 0
M  V30 5101 H  8.7581 -16.2476 -38.3089 0
M  V30 5102 H  7.1855 -16.5837 -39.0019 0
M  V30 5103 H  8.1147 -15.1985 -39.5682 0
M  V30 5104 H  8.6752 -15.3269 -35.5909 0
M  V30 5105 H  10.2167 -14.3440 -34.3409 0
M  V30 5106 H  12.0945 -13.1707 -35.5022 0
M  V30 5107 H  11.1206 -12.9758 -36.9342 0
M  V30 5108 H  12.1931 -16.9025 -36.0868 0
M  V30 5109 H  11.4262 -15.9440 -34.8491 0
M  V30 5110 H  7.7142 -12.9724 -34.2335 0
M  V30 5111 H  8.5722 -10.5507 -32.8960 0
M  V30 5112 H  6.9444 -11.1384 -33.0895 0
M  V30 5113 H  7.6047 -11.2430 -36.2303 0
M  V30 5114 H  7.0040 -8.3994 -36.7562 0
M  V30 5115 H  8.5223 -8.8087 -38.8731 0
M  V30 5116 H  9.2160 -10.1040 -37.9396 0
M  V30 5117 H  9.7640 -8.4081 -36.1121 0
M  V30 5118 H  9.1140 -7.1422 -37.1219 0
M  V30 5119 H  11.9600 -6.9849 -39.2870 0
M  V30 5120 H  10.2710 -6.5811 -39.1362 0
M  V30 5121 H  5.6564 -7.9353 -38.3802 0
M  V30 5122 H  4.3941 -10.1113 -39.9448 0
M  V30 5123 H  3.6831 -7.1822 -39.5856 0
M  V30 5124 H  1.6526 -7.6721 -40.9964 0
M  V30 5125 H  3.1236 -7.7009 -41.9381 0
M  V30 5126 H  2.3621 -9.2128 -41.4615 0
M  V30 5127 H  1.6349 -8.0143 -38.5429 0
M  V30 5128 H  2.0644 -9.6752 -38.9213 0
M  V30 5129 H  3.0104 -8.7731 -37.7549 0
M  V30 5130 H  5.1585 -10.3937 -42.0567 0
M  V30 5131 H  7.3905 -8.9152 -43.0105 0
M  V30 5132 H  5.5543 -10.8862 -44.4491 0
M  V30 5133 H  7.0037 -11.2674 -43.5693 0
M  V30 5134 H  9.2503 -10.3540 -44.3353 0
M  V30 5135 H  5.7093 -10.0808 -46.7895 0
M  V30 5136 H  10.6325 -9.8253 -46.3020 0
M  V30 5137 H  7.1278 -9.5545 -48.7339 0
M  V30 5138 H  9.5751 -9.4322 -48.4932 0
M  V30 5139 H  7.6266 -7.3518 -44.6208 0
M  V30 5140 H  5.7426 -5.2971 -44.6928 0
M  V30 5141 H  5.4471 -6.2489 -46.1528 0
M  V30 5142 H  7.2392 -3.7382 -44.9399 0
M  V30 5143 H  9.5873 -4.0980 -46.6838 0
M  V30 5144 H  7.9455 -1.5389 -46.7995 0
M  V30 5145 H  7.4093 -2.8949 -47.7511 0
M  V30 5146 H  10.1682 -1.7181 -48.0174 0
M  V30 5147 H  9.4635 -3.1706 -50.3736 0
M  V30 5148 H  10.6237 -3.6350 -49.1476 0
M  V30 5149 H  8.9652 -4.2006 -49.0475 0
M  V30 5150 H  9.4169 -0.2014 -49.5236 0
M  V30 5151 H  8.2823 -1.3074 -50.2784 0
M  V30 5152 H  7.8285 -0.4509 -48.8246 0
M  V30 5153 H  11.3140 -2.7765 -46.0828 0
M  V30 5154 H  12.7407 -1.7768 -44.7173 0
M  V30 5155 H  12.0684 0.2538 -43.5575 0
M  V30 5156 H  10.4257 -0.2875 -43.4691 0
M  V30 5157 H  13.0322 0.8434 -45.9143 0
M  V30 5158 H  8.8382 0.2852 -45.1068 0
M  V30 5159 H  12.4575 2.1077 -47.9702 0
M  V30 5160 H  8.2597 1.5374 -47.1489 0
M  V30 5161 H  10.7626 2.8911 -49.3294 0
M  V30 5162 H  11.9348 -4.3018 -43.9066 0
M  V30 5163 H  11.2403 -4.6147 -41.2032 0
M  V30 5164 H  14.3170 -3.8087 -42.6482 0
M  V30 5165 H  15.9868 -4.5258 -40.4623 0
M  V30 5166 H  16.9880 -4.6363 -42.5675 0
M  V30 5167 H  17.7539 -3.2798 -41.7975 0
M  V30 5168 H  17.3854 -2.0028 -45.1377 0
M  V30 5169 H  18.4562 -2.8567 -44.0601 0
M  V30 5170 H  14.1431 -1.6158 -41.2871 0
M  V30 5171 H  15.3250 -0.1372 -38.9692 0
M  V30 5172 H  14.1913 1.8528 -39.9981 0
M  V30 5173 H  15.8484 2.2597 -41.7794 0
M  V30 5174 H  16.6286 1.4779 -40.4088 0
M  V30 5175 H  16.2423 0.5459 -41.8525 0
M  V30 5176 H  12.7257 0.7211 -41.3058 0
M  V30 5177 H  14.1895 -1.5363 -37.5540 0
M  V30 5178 H  11.4430 -0.6245 -36.9724 0
M  V30 5179 H  10.9704 -3.0365 -36.1532 0
M  V30 5180 H  12.3304 -3.5573 -37.1346 0
M  V30 5181 H  11.4207 -2.5617 -39.3733 0
M  V30 5182 H  11.0768 -0.3686 -34.7868 0
M  V30 5183 H  13.4314 -0.7479 -32.9721 0
M  V30 5184 H  11.3506 1.4779 -33.0147 0
M  V30 5185 H  12.7594 2.5592 -31.2308 0
M  V30 5186 H  11.9675 1.1098 -30.6642 0
M  V30 5187 H  13.6795 1.0663 -31.0798 0
M  V30 5188 H  13.2542 2.9809 -33.5585 0
M  V30 5189 H  14.3288 1.5896 -33.6662 0
M  V30 5190 H  13.0144 1.7874 -34.8174 0
M  V30 5191 H  9.8189 -0.6150 -33.1121 0
M  V30 5192 H  9.5684 -2.7276 -31.0850 0
M  V30 5193 H  8.2970 -1.9382 -32.0097 0
M  V30 5194 H  7.4862 -2.2355 -29.6166 0
M  V30 5195 H  8.1238 0.1177 -27.9129 0
M  V30 5196 H  5.4925 0.2563 -27.7042 0
M  V30 5197 H  5.4644 -0.5882 -29.2414 0
M  V30 5198 H  6.7887 1.0937 -30.0770 0
M  V30 5199 H  8.0809 -0.2889 -25.8128 0
M  V30 5200 H  8.3063 -2.8784 -24.8268 0
M  V30 5201 H  5.5061 -0.6212 -24.5360 0
M  V30 5202 H  3.7450 -2.9739 -24.2436 0
M  V30 5203 H  2.9238 -2.9501 -26.1956 0
M  V30 5204 H  1.9054 -0.6186 -27.5943 0
M  V30 5205 H  2.0731 -3.6061 -28.0359 0
M  V30 5206 H  1.0365 -3.4548 -30.2883 0
M  V30 5207 H  -0.1071 -3.3331 -28.9818 0
M  V30 5208 H  0.3777 -1.8813 -29.8682 0
M  V30 5209 H  3.3301 -2.9151 -30.0722 0
M  V30 5210 H  3.0780 -1.2256 -29.6464 0
M  V30 5211 H  4.0301 -2.2797 -28.5975 0
M  V30 5212 H  0.8051 -2.1655 -24.9030 0
M  V30 5213 H  -1.7773 -2.8821 -25.0789 0
M  V30 5214 H  -0.3714 -1.3364 -22.8472 0
M  V30 5215 H  -1.8947 -2.5243 -21.2438 0
M  V30 5216 H  -2.7633 -1.3606 -22.2203 0
M  V30 5217 H  -2.8736 -3.0795 -22.5983 0
M  V30 5218 H  -0.1180 -3.5229 -22.0766 0
M  V30 5219 H  -0.7540 0.5882 -24.6251 0
M  V30 5220 H  -3.4623 1.4967 -24.3387 0
M  V30 5221 H  -2.5796 3.7937 -24.5480 0
M  V30 5222 H  -1.0061 3.1645 -24.9900 0
M  V30 5223 H  -1.3304 1.1547 -27.1800 0
M  V30 5224 H  -3.0438 2.5323 -29.0114 0
M  V30 5225 H  -0.8265 0.4835 -29.3791 0
M  V30 5226 H  -0.7742 2.1978 -29.6110 0
M  V30 5227 H  -2.0126 3.2603 -31.6029 0
M  V30 5228 H  -1.6468 -1.0172 -31.1370 0
M  V30 5229 H  -2.7002 2.9314 -33.9305 0
M  V30 5230 H  -2.3198 -1.2852 -33.4943 0
M  V30 5231 H  -2.8512 0.6579 -34.8736 0
M  V30 5232 H  -2.8509 -0.8883 -28.0059 0
M  V30 5233 H  -4.8059 -1.9237 -29.7449 0
M  V30 5234 H  -4.9632 -3.7608 -27.9810 0
M  V30 5235 H  -3.9449 -2.8118 -26.9343 0
M  V30 5236 H  -1.4897 -5.0345 -28.2706 0
M  V30 5237 H  -2.5600 -4.7192 -26.9348 0
M  V30 5238 H  -5.0946 -0.5468 -26.4252 0
M  V30 5239 H  -7.8719 -0.9947 -26.1023 0
M  V30 5240 H  -7.5875 0.7360 -24.2517 0
M  V30 5241 H  -6.4669 -0.6175 -24.1790 0
M  V30 5242 H  -5.9163 0.9347 -24.7838 0
M  V30 5243 H  -6.1003 1.8968 -27.3805 0
M  V30 5244 H  -8.4314 3.4860 -27.8098 0
M  V30 5245 H  -5.6506 3.5402 -29.0316 0
M  V30 5246 H  -6.0973 4.1364 -26.5247 0
M  V30 5247 H  -6.8574 5.5701 -27.1156 0
M  V30 5248 H  -6.1235 5.8440 -29.8745 0
M  V30 5249 H  -7.1285 4.6849 -30.7009 0
M  V30 5250 H  -7.8075 5.6553 -29.4063 0
M  V30 5251 H  -4.3712 5.7630 -26.4574 0
M  V30 5252 H  -3.9817 4.8128 -27.8826 0
M  V30 5253 H  -4.7433 6.3910 -28.0544 0
M  V30 5254 H  -6.6780 1.1669 -29.9078 0
M  V30 5255 H  -8.0592 1.6979 -32.3172 0
M  V30 5256 H  -7.0068 -0.5344 -32.9816 0
M  V30 5257 H  -5.8661 0.6270 -32.3216 0
M  V30 5258 H  -6.4440 -0.7087 -31.3305 0
M  V30 5259 H  -8.8539 -0.5183 -29.6379 0
M  V30 5260 H  -10.9768 -1.8228 -31.2728 0
M  V30 5261 H  -10.8319 -3.6514 -29.6682 0
M  V30 5262 H  -8.5247 -4.4824 -30.0677 0
M  V30 5263 H  -9.2695 -3.8531 -31.5256 0
M  V30 5264 H  -8.0472 -2.9083 -30.6919 0
M  V30 5265 H  -8.7187 -2.3350 -28.3740 0
M  V30 5266 H  -10.7243 0.5012 -28.6617 0
M  V30 5267 H  -13.1067 -0.3147 -27.2891 0
M  V30 5268 H  -11.4062 1.0382 -26.1180 0
M  V30 5269 H  -12.9962 1.7233 -26.0519 0
M  V30 5270 H  -10.5118 2.6019 -28.0113 0
M  V30 5271 H  -15.1361 0.6506 -27.1965 0
M  V30 5272 H  -16.1826 1.4609 -29.7906 0
M  V30 5273 H  -17.4132 -0.2744 -28.8148 0
M  V30 5274 H  -18.4229 1.1266 -28.6928 0
M  V30 5275 H  -15.0524 3.1576 -27.0836 0
M  V30 5276 H  -15.0623 5.2648 -26.4385 0
M  V30 5277 H  -15.7046 7.0854 -27.9734 0
M  V30 5278 H  -16.4768 5.9520 -29.0380 0
M  V30 5279 H  -14.9572 4.6460 -30.7050 0
M  V30 5280 H  -13.2739 7.4625 -26.7863 0
M  V30 5281 H  -12.4708 4.6509 -31.2750 0
M  V30 5282 H  -10.0206 5.7476 -30.1516 0
M  V30 5283 H  -10.8684 7.9388 -26.5296 0
M  V30 5284 H  -9.2246 7.0614 -28.1816 0
M  V30 5285 H  -17.3549 3.4741 -25.7204 0
M  V30 5286 H  -19.4636 5.4813 -25.1393 0
M  V30 5287 H  -20.8674 3.6307 -24.5300 0
M  V30 5288 H  -21.0684 2.3855 -26.6389 0
M  V30 5289 H  -20.7543 4.0837 -26.9739 0
M  V30 5290 H  -19.4661 2.8993 -27.1458 0
M  V30 5291 H  -18.7526 1.8533 -25.0874 0
M  V30 5292 H  -16.7181 4.1014 -23.6012 0
M  V30 5293 H  -17.7840 4.6097 -20.8522 0
M  V30 5294 H  -15.8883 3.3063 -20.0796 0
M  V30 5295 H  -15.1698 3.2545 -21.6616 0
M  V30 5296 H  -16.8971 0.3904 -22.7530 0
M  V30 5297 H  -15.7309 1.6347 -23.1033 0
M  V30 5298 H  -16.8044 6.0993 -19.5147 0
M  V30 5299 H  -15.4841 8.3354 -20.6365 0
M  V30 5300 H  -15.2805 9.0699 -18.2546 0
M  V30 5301 H  -16.8925 8.4867 -18.6260 0
M  V30 5302 H  -15.7807 7.4670 -17.7187 0
M  V30 5303 H  -14.1750 5.3880 -19.2054 0
M  V30 5304 H  -12.0820 4.5644 -18.9369 0
M  V30 5305 H  -11.5123 6.1879 -18.6273 0
M  V30 5306 H  -13.1202 5.4362 -21.7024 0
M  V30 5307 H  -10.7821 4.8794 -23.2648 0
M  V30 5308 H  -12.2419 5.0239 -25.1990 0
M  V30 5309 H  -13.4801 5.8654 -24.2946 0
M  V30 5310 H  -12.6641 7.8204 -22.5449 0
M  V30 5311 H  -11.1239 9.5691 -24.2590 0
M  V30 5312 H  -12.4493 11.3465 -23.1008 0
M  V30 5313 H  -13.1011 10.1445 -22.0139 0
M  V30 5314 H  -14.7094 8.4516 -22.8087 0
M  V30 5315 H  -13.1972 11.5251 -25.4217 0
M  V30 5316 H  -16.5120 7.9458 -24.4246 0
M  V30 5317 H  -15.0307 11.0478 -27.0255 0
M  V30 5318 H  -17.3670 8.4107 -26.5369 0
M  V30 5319 H  -10.9923 8.5617 -20.8480 0
M  V30 5320 H  -9.0938 10.4801 -19.9316 0
M  V30 5321 H  -9.8425 7.6864 -19.0218 0
M  V30 5322 H  -11.4356 9.6876 -18.7308 0
M  V30 5323 H  -10.2659 10.3405 -17.6463 0
M  V30 5324 H  -8.5660 8.1028 -16.8763 0
M  V30 5325 H  -7.5274 7.8472 -18.2520 0
M  V30 5326 H  -7.7909 9.4767 -17.6453 0
M  V30 5327 H  -12.3591 8.5709 -16.9813 0
M  V30 5328 H  -10.9158 7.5768 -16.8477 0
M  V30 5329 H  -11.0435 9.0664 -15.9230 0
M  V30 5330 H  -8.7345 7.1794 -21.3564 0
M  V30 5331 H  -5.9215 7.1153 -21.3431 0
M  V30 5332 H  -7.9360 5.7171 -23.1499 0
M  V30 5333 H  -7.3807 5.1354 -21.6089 0
M  V30 5334 H  -5.6521 5.4794 -24.0927 0
M  V30 5335 H  -4.2528 3.8230 -22.2873 0
M  V30 5336 H  -3.8535 5.4781 -22.7062 0
M  V30 5337 H  -4.8236 5.1320 -21.2809 0
M  V30 5338 H  -5.7876 3.2135 -24.4916 0
M  V30 5339 H  -6.2736 2.8043 -22.8550 0
M  V30 5340 H  -7.4271 3.5489 -23.9537 0
M  V30 5341 H  -8.2027 8.2935 -23.8492 0
M  V30 5342 H  -6.3570 8.9136 -25.8733 0
M  V30 5343 H  -8.2767 10.3013 -26.7421 0
M  V30 5344 H  -8.7813 8.7002 -26.2146 0
M  V30 5345 H  -9.0954 10.1085 -25.2051 0
M  V30 5346 H  -6.6570 10.5440 -22.8608 0
M  V30 5347 H  -5.3376 13.0087 -23.9338 0
M  V30 5348 H  -6.6968 13.2302 -21.2771 0
M  V30 5349 H  -7.8048 12.7608 -22.5194 0
M  V30 5350 H  -6.2509 16.5390 -22.6313 0
M  V30 5351 H  -5.5465 15.3215 -21.5981 0
M  V30 5352 H  -4.8649 10.2495 -21.9117 0
M  V30 5353 H  -2.6406 11.6021 -20.4408 0
M  V30 5354 H  -2.7319 9.6504 -18.9242 0
M  V30 5355 H  -4.9210 10.1061 -17.8117 0
M  V30 5356 H  -4.0511 11.5717 -18.2368 0
M  V30 5357 H  -5.4257 11.0760 -19.1936 0
M  V30 5358 H  -5.1006 8.8437 -20.1815 0
M  V30 5359 H  -3.2459 9.4569 -23.0844 0
M  V30 5360 H  -0.8328 7.9073 -22.9667 0
M  V30 5361 H  -2.8353 7.1326 -24.1957 0
M  V30 5362 H  -1.4643 7.2396 -25.2619 0
M  V30 5363 H  -2.0057 9.5069 -26.3362 0
M  V30 5364 H  0.6485 7.9847 -25.0214 0
M  V30 5365 H  2.2378 10.3215 -25.0457 0
M  V30 5366 H  3.4749 9.2773 -26.7931 0
M  V30 5367 H  3.9561 7.0201 -26.0209 0
M  V30 5368 H  3.6804 8.0687 -24.6363 0
M  V30 5369 H  2.4323 6.9346 -25.1481 0
M  V30 5370 H  2.6648 7.3730 -27.8670 0
M  V30 5371 H  2.7183 11.7570 -26.9012 0
M  V30 5372 H  0.3786 13.0571 -27.6054 0
M  V30 5373 H  3.1707 13.4838 -28.7415 0
M  V30 5374 H  2.6224 14.0949 -27.2145 0
M  V30 5375 H  1.5691 14.9040 -29.9738 0
M  V30 5376 H  2.5504 15.8677 -28.9112 0
M  V30 5377 H  2.2970 10.8347 -29.7084 0
M  V30 5378 H  0.6513 11.4035 -32.0002 0
M  V30 5379 H  2.5070 9.0427 -31.4760 0
M  V30 5380 H  2.9691 10.5447 -32.2251 0
M  V30 5381 H  1.0422 8.4584 -33.4353 0
M  V30 5382 H  2.6843 8.8154 -33.8601 0
M  V30 5383 H  2.2435 10.8510 -34.8459 0
M  V30 5384 H  0.6953 11.1190 -34.1238 0
M  V30 5385 H  1.5056 9.6188 -36.5022 0
M  V30 5386 H  -1.7738 9.1198 -37.6236 0
M  V30 5387 H  -0.0940 9.1961 -38.0798 0
M  V30 5388 H  -2.4302 9.5010 -35.4842 0
M  V30 5389 H  -1.2515 9.8002 -34.2291 0
M  V30 5390 H  0.3196 9.2167 -29.2352 0
M  V30 5391 H  -1.8906 7.7640 -30.4296 0
M  V30 5392 H  -2.1862 7.0781 -27.8945 0
M  V30 5393 H  -0.6454 7.8425 -27.6610 0
M  V30 5394 H  0.3056 6.3094 -29.4190 0
M  V30 5395 H  0.8458 4.8091 -27.8139 0
M  V30 5396 H  -0.2021 5.7193 -26.7442 0
M  V30 5397 H  -0.8122 4.2912 -27.5485 0
M  V30 5398 H  -1.5981 4.2235 -29.5991 0
M  V30 5399 H  -2.5343 5.6625 -29.8694 0
M  V30 5400 H  -1.1304 5.3313 -30.8761 0
M  V30 5401 H  -1.6113 10.8422 -28.6929 0
M  V30 5402 H  -4.4200 11.0704 -28.0929 0
M  V30 5403 H  -4.0098 13.5098 -28.0521 0
M  V30 5404 H  -2.3912 13.3003 -28.6430 0
M  V30 5405 H  -1.7100 12.2111 -26.5801 0
M  V30 5406 H  -3.3543 12.0409 -26.0297 0
M  V30 5407 H  -3.6092 14.4075 -25.6977 0
M  V30 5408 H  -2.1594 14.7871 -26.5940 0
M  V30 5409 H  -0.7467 13.7458 -24.8257 0
M  V30 5410 H  -2.1722 13.2301 -23.9532 0
M  V30 5411 H  -2.7656 15.5482 -23.6904 0
M  V30 5412 H  -1.2802 15.2226 -23.0419 0
M  V30 5413 H  -1.3989 16.0067 -24.4893 0
M  V30 5414 H  -2.3967 11.7501 -30.9610 0
M  V30 5415 H  -4.4974 12.9302 -32.5134 0
M  V30 5416 H  -2.9152 12.5909 -34.4169 0
M  V30 5417 H  -1.8632 11.6562 -33.3923 0
M  V30 5418 H  -1.2966 13.5458 -32.0507 0
M  V30 5419 H  0.1741 14.4398 -33.5498 0
M  V30 5420 H  -0.4868 13.2370 -34.6472 0
M  V30 5421 H  -1.0802 14.8786 -34.7069 0
M  V30 5422 H  -2.2293 15.8940 -32.7758 0
M  V30 5423 H  -3.5897 14.9651 -33.4014 0
M  V30 5424 H  -3.1631 14.8855 -31.6971 0
M  V30 5425 H  -3.1573 9.5721 -32.3215 0
M  V30 5426 H  -4.8770 8.5237 -34.3394 0
M  V30 5427 H  -3.2672 7.1959 -32.1399 0
M  V30 5428 H  -2.9026 7.3136 -33.8368 0
M  V30 5429 H  -4.6264 6.1861 -35.5161 0
M  V30 5430 H  -4.3409 5.2074 -31.3211 0
M  V30 5431 H  -5.8194 4.0684 -35.9024 0
M  V30 5432 H  -5.5128 3.0896 -31.7552 0
M  V30 5433 H  -6.2578 2.5243 -34.0368 0
M  V30 5434 H  -5.2724 8.8052 -30.7915 0
M  V30 5435 H  -7.8048 7.5454 -30.6161 0
M  V30 5436 H  -7.9187 8.8098 -28.4355 0
M  V30 5437 H  -6.4192 7.9215 -28.6155 0
M  V30 5438 H  -6.4489 9.6660 -28.8637 0
M  V30 5439 H  -6.9362 10.9960 -31.1543 0
M  V30 5440 H  -9.5867 12.0022 -31.1015 0
M  V30 5441 H  -8.4872 13.9936 -32.2455 0
M  V30 5442 H  -7.6928 13.4823 -30.7659 0
M  V30 5443 H  -6.9965 13.0653 -32.3253 0
M  V30 5444 H  -7.5449 10.8495 -33.8296 0
M  V30 5445 H  -9.3836 11.3080 -35.9471 0
M  V30 5446 H  -8.0773 9.2628 -36.9195 0
M  V30 5447 H  -7.1007 9.3486 -35.4967 0
M  V30 5448 H  -6.4001 11.6704 -36.0846 0
M  V30 5449 H  -7.4104 11.6213 -37.5066 0
M  V30 5450 H  -8.7248 8.3127 -34.0359 0
M  V30 5451 H  -10.6415 6.7008 -35.3203 0
M  V30 5452 H  -9.3830 6.4075 -32.5449 0
M  V30 5453 H  -9.8077 3.9545 -32.7746 0
M  V30 5454 H  -11.3239 4.8229 -32.6829 0
M  V30 5455 H  -10.7444 4.2420 -34.2373 0
M  V30 5456 H  -7.8473 6.3794 -34.0759 0
M  V30 5457 H  -10.9019 8.6167 -32.2904 0
M  V30 5458 H  -13.5094 7.8689 -31.5652 0
M  V30 5459 H  -11.8489 10.3777 -31.1413 0
M  V30 5460 H  -12.0171 9.0364 -30.0412 0
M  V30 5461 H  -14.1817 11.0528 -30.7580 0
M  V30 5462 H  -15.6938 10.0149 -29.2839 0
M  V30 5463 H  -14.9862 8.6339 -30.0857 0
M  V30 5464 H  -14.4439 9.0762 -28.4797 0
M  V30 5465 H  -13.7449 12.2015 -28.7994 0
M  V30 5466 H  -12.9174 10.8411 -28.0333 0
M  V30 5467 H  -12.1222 11.7534 -29.2979 0
M  V30 5468 H  -12.3799 10.6904 -33.5598 0
M  V30 5469 H  -15.0036 11.6340 -34.0053 0
M  V30 5470 H  -12.5053 12.2884 -35.6332 0
M  V30 5471 H  -12.9150 12.9706 -34.0817 0
M  V30 5472 H  -15.1617 13.7105 -35.0622 0
M  V30 5473 H  -14.5224 13.3314 -36.6352 0
M  V30 5474 H  -12.7210 14.9721 -36.3655 0
M  V30 5475 H  -13.1395 15.2382 -34.6890 0
M  V30 5476 H  -15.4332 16.0915 -35.4774 0
M  V30 5477 H  -14.8521 15.9723 -37.1275 0
M  V30 5478 H  -13.1140 17.5309 -36.5365 0
M  V30 5479 H  -14.6085 18.1641 -36.2481 0
M  V30 5480 H  -13.6845 17.6322 -34.9944 0
M  V30 5481 H  -12.9606 9.4104 -35.9508 0
M  V30 5482 H  -14.7855 9.1762 -38.1402 0
M  V30 5483 H  -13.4498 7.0777 -38.6093 0
M  V30 5484 H  -12.4812 8.5305 -38.4061 0
M  V30 5485 H  -12.5765 7.3519 -37.1010 0
M  V30 5486 H  -14.6391 7.4901 -34.9686 0
M  V30 5487 H  -16.7106 5.5962 -35.6279 0
M  V30 5488 H  -15.8243 6.5298 -32.8504 0
M  V30 5489 H  -16.7041 4.3149 -32.0819 0
M  V30 5490 H  -18.0126 5.2517 -32.7677 0
M  V30 5491 H  -17.2776 3.9626 -33.7045 0
M  V30 5492 H  -14.1235 5.6245 -33.9472 0
M  V30 5493 H  -16.6773 8.8619 -34.1045 0
M  V30 5494 H  -19.4079 9.0384 -33.3992 0
M  V30 5495 H  -18.8935 11.6011 -33.7146 0
M  V30 5496 H  -17.2792 11.0852 -34.0781 0
M  V30 5497 H  -17.2196 9.9126 -31.7878 0
M  V30 5498 H  -18.7941 10.6028 -31.4820 0
M  V30 5499 H  -17.7365 10.1248 -36.4089 0
M  V30 5500 H  -20.0755 11.0263 -37.7235 0
M  V30 5501 H  -18.5552 10.9211 -39.7903 0
M  V30 5502 H  -17.3545 10.1688 -38.7991 0
M  V30 5503 H  -16.8927 12.5691 -39.0803 0
M  V30 5504 H  -17.1070 12.1854 -37.4083 0
M  V30 5505 H  -18.4620 7.8088 -37.8144 0
M  V30 5506 H  -20.2269 6.7086 -39.7940 0
M  V30 5507 H  -18.4233 5.3792 -37.7205 0
M  V30 5508 H  -18.5055 3.3390 -39.2046 0
M  V30 5509 H  -20.0322 3.6198 -38.3969 0
M  V30 5510 H  -19.8431 4.0588 -40.0958 0
M  V30 5511 H  -17.3026 6.5112 -39.2183 0
M  V30 5512 H  -20.4571 7.0327 -36.2430 0
M  V30 5513 H  -22.6608 5.2252 -35.9498 0
M  V30 5514 H  -21.5952 7.4284 -34.1353 0
M  V30 5515 H  -21.1657 5.7406 -34.1180 0
M  V30 5516 H  -22.8911 3.9631 -33.5743 0
M  V30 5517 H  -23.6167 8.1712 -32.9453 0
M  V30 5518 H  -24.7803 3.4330 -32.0878 0
M  V30 5519 H  -25.4698 7.6021 -31.4351 0
M  V30 5520 H  -26.0642 5.2458 -31.0177 0
M  V30 5521 H  -22.4902 8.5733 -37.0691 0
M  V30 5522 H  -25.2823 9.1524 -36.6976 0
M  V30 5523 H  -24.9304 10.9875 -38.2255 0
M  V30 5524 H  -23.3793 10.3865 -38.7348 0
M  V30 5525 H  -22.3141 11.0099 -36.7540 0
M  V30 5526 H  -23.7472 10.8669 -35.7746 0
M  V30 5527 H  -23.0565 13.1954 -35.9751 0
M  V30 5528 H  -24.6435 12.9601 -36.6526 0
M  V30 5529 H  -23.6495 12.9555 -38.9784 0
M  V30 5530 H  -22.0531 13.1581 -38.2828 0
M  V30 5531 H  -22.9942 15.2064 -39.0126 0
M  V30 5532 H  -24.2862 15.0455 -37.9986 0
M  V30 5533 H  -22.7668 15.2436 -37.3808 0
M  V30 5534 H  -23.4882 7.2733 -39.0622 0
M  V30 5535 H  -25.5619 7.1911 -41.0855 0
M  V30 5536 H  -24.1119 5.5352 -42.1542 0
M  V30 5537 H  -23.1861 5.3105 -40.7105 0
M  V30 5538 H  -22.3203 7.6365 -40.8750 0
M  V30 5539 H  -20.5925 6.9266 -42.1272 0
M  V30 5540 H  -21.4856 5.4312 -42.3419 0
M  V30 5541 H  -21.5699 6.6832 -43.5648 0
M  V30 5542 H  -22.7686 8.6172 -43.3876 0
M  V30 5543 H  -24.3198 7.8488 -43.0935 0
M  V30 5544 H  -23.7239 9.0703 -41.9845 0
M  V30 5545 H  -24.8965 5.4182 -38.1156 0
M  V30 5546 H  -26.2930 3.0222 -38.7787 0
M  V30 5547 H  -24.5296 3.4047 -36.9115 0
M  V30 5548 H  -25.8826 2.3538 -36.5811 0
M  V30 5549 H  -25.5677 5.0175 -35.6993 0
M  V30 5550 H  -27.3905 6.1835 -37.7654 0
M  V30 5551 H  -29.9751 5.4044 -36.8107 0
M  V30 5552 H  -30.3691 7.9425 -37.1503 0
M  V30 5553 H  -28.7529 8.0490 -37.7482 0
M  V30 5554 H  -30.3595 6.2787 -34.7788 0
M  V30 5555 H  -27.3939 9.0933 -36.1487 0
M  V30 5556 H  -29.6876 6.6896 -32.4501 0
M  V30 5557 H  -26.7323 9.5293 -33.8012 0
M  V30 5558 H  -28.3690 7.9298 -31.0330 0
M  V30 5559 H  -31.9649 5.6190 -37.7457 0
M  V30 5560 H  -33.4626 5.0892 -39.3721 0
M  V30 5561 H  -32.1673 4.9106 -40.5452 0
M  V30 5562 H  -33.2947 6.0513 -42.1523 0
M  V30 5563 H  -33.1668 8.9224 -42.2019 0
M  V30 5564 H  -34.4409 6.8471 -44.0427 0
M  V30 5565 H  -31.8895 6.8495 -43.8154 0
M  V30 5566 H  -31.8926 8.4368 -44.4961 0
M  V30 5567 H  -34.4844 8.6916 -45.8051 0
M  V30 5568 H  -35.6448 8.9125 -44.5253 0
M  V30 5569 H  -34.1503 9.8407 -44.5088 0
M  V30 5570 H  -31.5517 6.2833 -46.0299 0
M  V30 5571 H  -33.3084 6.2529 -46.0501 0
M  V30 5572 H  -32.4424 7.6681 -46.6499 0
M  V30 5573 H  -34.6898 10.3610 -41.5642 0
M  V30 5574 H  -37.4719 9.5372 -40.9139 0
M  V30 5575 H  -37.2154 11.1443 -39.3482 0
M  V30 5576 H  -35.6222 11.5930 -39.9402 0
M  V30 5577 H  -37.0583 12.3705 -40.5811 0
M  V30 5578 H  -39.1949 10.1093 -42.2753 0
M  V30 5579 H  -38.6442 11.8750 -44.6214 0
M  V30 5580 H  -40.1762 9.2202 -44.6562 0
M  V30 5581 H  -40.1783 9.5260 -47.1536 0
M  V30 5582 H  -41.1211 10.7756 -46.3687 0
M  V30 5583 H  -39.4990 11.1364 -46.9546 0
M  V30 5584 H  -37.9622 8.9231 -44.5650 0
M  V30 5585 H  -40.2535 13.3394 -45.0660 0
M  V30 5586 H  -42.3562 13.8126 -43.2161 0
M  V30 5587 H  -42.0941 14.7934 -46.1040 0
M  V30 5588 H  -43.5980 16.6704 -45.3682 0
M  V30 5589 H  -44.4452 15.1429 -45.3209 0
M  V30 5590 H  -43.8554 15.8399 -43.8332 0
M  V30 5591 H  -41.2424 16.9100 -45.0797 0
M  V30 5592 H  -41.1996 16.0967 -43.5155 0
M  V30 5593 H  -40.1651 15.5539 -44.8392 0
M  V30 5594 H  -44.0720 12.5640 -42.9148 0
M  V30 5595 H  -45.1629 10.8246 -45.0106 0
M  V30 5596 H  -46.0480 11.1430 -42.0965 0
M  V30 5597 H  -44.6637 10.2029 -42.5514 0
M  V30 5598 H  -46.0789 8.7349 -44.0253 0
M  V30 5599 H  -47.4578 9.6948 -43.5828 0
M  V30 5600 H  -45.8951 8.5077 -41.3229 0
M  V30 5601 H  -46.8102 7.3758 -42.2566 0
M  V30 5602 H  -47.6784 9.7423 -40.6013 0
M  V30 5603 H  -50.3669 6.8407 -41.5800 0
M  V30 5604 H  -48.7749 6.7768 -42.2870 0
M  V30 5605 H  -50.9271 8.5432 -40.1342 0
M  V30 5606 H  -49.7807 9.7998 -39.7615 0
M  V30 5607 H  -45.9306 13.7453 -43.1705 0
M  V30 5608 H  -48.1564 14.5462 -44.8297 0
M  V30 5609 H  -48.5392 13.3792 -42.0544 0
M  V30 5610 H  -49.3465 12.9204 -43.5129 0
M  V30 5611 H  -50.6086 15.0541 -43.5615 0
M  V30 5612 H  -49.8230 15.5853 -42.0949 0
M  V30 5613 H  -48.0341 16.7345 -44.9177 0
M  V30 5614 H  -46.3510 18.2057 -42.9944 0
M  V30 5615 H  -47.8714 19.1748 -45.4494 0
M  V30 5616 H  -46.3867 21.2011 -45.2705 0
M  V30 5617 H  -47.4752 21.0800 -43.9047 0
M  V30 5618 H  -45.7872 20.6174 -43.7251 0
M  V30 5619 H  -45.7534 19.2137 -46.6132 0
M  V30 5620 H  -44.8850 18.6295 -45.1960 0
M  V30 5621 H  -46.0203 17.5816 -46.0465 0
M  V30 5622 H  -47.4495 18.1098 -41.1135 0
M  V30 5623 H  -50.1964 18.1351 -40.7781 0
M  V30 5624 H  -48.3459 19.0571 -38.5553 0
M  V30 5625 H  -47.9872 17.5234 -39.2703 0
M  V30 5626 H  -50.6657 18.2138 -38.0509 0
M  V30 5627 H  -50.6939 15.4908 -38.1862 0
M  V30 5628 H  -51.3308 16.5018 -39.4562 0
M  V30 5629 H  -49.7154 15.8209 -39.6128 0
M  V30 5630 H  -49.9353 17.4436 -36.0408 0
M  V30 5631 H  -49.0243 16.1119 -36.7415 0
M  V30 5632 H  -48.3125 17.7093 -36.6534 0
M  V30 5633 H  -47.9006 20.7996 -40.6050 0
M  V30 5634 H  -49.6588 22.8178 -41.3958 0
M  V30 5635 H  -50.5387 22.6769 -39.0245 0
M  V30 5636 H  -49.7762 24.2033 -39.3517 0
M  V30 5637 H  -47.9707 23.5627 -38.2231 0
M  V30 5638 H  -48.1871 25.0789 -40.5328 0
M  V30 5639 H  -45.4093 24.5278 -41.3532 0
M  V30 5640 H  -45.3656 27.1340 -40.3484 0
M  V30 5641 H  -46.9949 27.0322 -40.9162 0
M  V30 5642 H  -43.6633 24.8007 -40.1183 0
M  V30 5643 H  -42.3184 24.4648 -38.4452 0
M  V30 5644 H  -45.0151 22.5475 -38.7983 0
M  V30 5645 H  -43.8925 20.5192 -36.9961 0
M  V30 5646 H  -46.1548 19.8112 -36.3070 0
M  V30 5647 H  -46.8776 21.1490 -37.1386 0
M  V30 5648 H  -46.0790 22.7890 -35.6241 0
M  V30 5649 H  -44.7821 21.7783 -35.0472 0
M  V30 5650 H  -44.1291 18.4259 -37.5850 0
M  V30 5651 H  -45.3011 17.7556 -40.2282 0
M  V30 5652 H  -43.0910 16.3281 -40.5055 0
M  V30 5653 H  -42.4297 17.3142 -39.2399 0
M  V30 5654 H  -42.8749 19.3307 -40.6920 0
M  V30 5655 H  -41.0305 18.1643 -42.5148 0
M  V30 5656 H  -40.6679 19.0488 -41.0539 0
M  V30 5657 H  -40.7958 17.3007 -41.0093 0
M  V30 5658 H  -43.0658 18.1199 -43.2839 0
M  V30 5659 H  -44.3497 17.4668 -42.3011 0
M  V30 5660 H  -44.1870 19.2073 -42.4857 0
M  V30 5661 H  -45.4894 15.5028 -40.5753 0
M  V30 5662 H  -45.4992 13.7117 -38.1939 0
M  V30 5663 H  -46.8237 12.8658 -40.7533 0
M  V30 5664 H  -47.5656 14.2587 -40.0331 0
M  V30 5665 H  -49.2442 13.8404 -37.8837 0
M  V30 5666 H  -48.4423 9.7333 -37.4957 0
M  V30 5667 H  -43.7305 12.2927 -38.2567 0
M  V30 5668 H  -42.2808 11.9866 -40.8484 0
M  V30 5669 H  -40.3270 11.3566 -39.4036 0
M  V30 5670 H  -41.2517 11.7713 -37.9897 0
M  V30 5671 H  -41.3687 14.1258 -38.7246 0
M  V30 5672 H  -38.8640 14.6257 -38.5424 0
M  V30 5673 H  -39.4910 13.5379 -37.3103 0
M  V30 5674 H  -38.5782 12.8971 -38.6599 0
M  V30 5675 H  -39.5521 14.5735 -40.7469 0
M  V30 5676 H  -40.2867 13.0891 -41.3023 0
M  V30 5677 H  -41.2892 14.5013 -40.9805 0
M  V30 5678 H  -41.8509 10.1005 -41.6693 0
M  V30 5679 H  -42.6682 7.5620 -40.3393 0
M  V30 5680 H  -42.3155 8.3288 -43.2954 0
M  V30 5681 H  -43.8355 8.0294 -42.4828 0
M  V30 5682 H  -41.7765 6.1758 -43.0113 0
M  V30 5683 H  -40.9612 6.4640 -39.5251 0
M  V30 5684 H  -38.2027 7.1756 -40.3478 0
M  V30 5685 H  -37.6568 5.9218 -38.2232 0
M  V30 5686 H  -39.3649 5.7319 -37.9369 0
M  V30 5687 H  -40.7076 7.9476 -37.2238 0
M  V30 5688 H  -35.7519 7.7449 -38.4846 0
M  V30 5689 H  -39.9621 10.1966 -36.2536 0
M  V30 5690 H  -37.4929 11.7045 -36.0093 0
M  V30 5691 H  -34.2470 9.6339 -37.9501 0
M  V30 5692 H  -35.0887 11.6001 -36.6806 0
M  V30 5693 H  -36.6543 5.6923 -40.8473 0
M  V30 5694 H  -37.3511 3.4028 -42.3591 0
M  V30 5695 H  -34.7464 4.5123 -41.2787 0
M  V30 5696 H  -35.4217 4.7278 -42.8691 0
M  V30 5697 H  -35.1132 2.2420 -43.3002 0
M  V30 5698 H  -34.3406 2.0873 -41.7399 0
M  V30 5699 H  -37.7016 1.3664 -41.8243 0
M  V30 5700 H  -37.6309 0.4209 -39.1044 0
M  V30 5701 H  -38.3439 -1.7297 -40.1294 0
M  V30 5702 H  -40.5646 -0.9978 -40.8686 0
M  V30 5703 H  -40.0309 -0.0632 -39.4794 0
M  V30 5704 H  -39.9826 0.6482 -41.0895 0
M  V30 5705 H  -38.9487 -1.8781 -42.5392 0
M  V30 5706 H  -38.1338 -0.3532 -42.8486 0
M  V30 5707 H  -37.2183 -1.7608 -42.3152 0
M  V30 5708 H  -36.3019 -1.0939 -38.1730 0
M  V30 5709 H  -34.1463 -2.4510 -39.6130 0
M  V30 5710 H  -34.6047 -2.6198 -37.9342 0
M  V30 5711 H  -34.2127 0.7417 -38.6130 0
M  V30 5712 H  -31.4844 0.6948 -37.4452 0
M  V30 5713 H  -31.3459 3.0217 -38.5389 0
M  V30 5714 H  -32.6856 2.5561 -39.5521 0
M  V30 5715 H  -31.3023 0.7249 -40.5043 0
M  V30 5716 H  -30.0616 0.9799 -39.2974 0
M  V30 5717 H  -29.6906 3.3077 -40.1973 0
M  V30 5718 H  -30.8666 3.0010 -41.4334 0
M  V30 5719 H  -29.4362 1.1267 -42.3254 0
M  V30 5720 H  -28.2533 1.4399 -41.0626 0
M  V30 5721 H  -27.9658 3.6395 -41.9460 0
M  V30 5722 H  -27.6755 2.5045 -43.1093 0
M  V30 5723 H  -29.0906 3.3537 -43.1193 0
M  V30 5724 H  -33.4697 2.8322 -34.0418 0
M  V30 5725 H  -31.5749 2.3954 -32.8012 0
M  V30 5726 H  -31.2675 4.1192 -32.9234 0
M  V30 5727 H  -29.3635 2.4529 -33.7997 0
M  V30 5728 H  -29.8270 3.8007 -34.8398 0
M  V30 5729 H  -30.1528 1.9797 -36.3122 0
M  V30 5730 H  -30.7944 0.9312 -35.0450 0
M  V30 5731 H  -34.1604 4.8812 -33.2976 0
M  V30 5732 H  -34.0877 7.0108 -35.3151 0
M  V30 5733 H  -35.9048 7.9780 -33.9261 0
M  V30 5734 H  -35.7539 6.6620 -32.7895 0
M  V30 5735 H  -36.3816 5.0230 -34.6589 0
M  V30 5736 H  -36.4404 6.4010 -35.7233 0
M  V30 5737 H  -38.3180 7.3526 -34.7536 0
M  V30 5738 H  -38.2360 6.4425 -33.2628 0
M  V30 5739 H  -38.5316 4.6302 -35.4261 0
M  V30 5740 H  -42.0167 6.5825 -34.6452 0
M  V30 5741 H  -40.5204 7.2749 -34.0777 0
M  V30 5742 H  -41.9934 4.5928 -35.8285 0
M  V30 5743 H  -40.4911 3.7763 -36.1540 0
M  V30 5744 H  -31.0106 9.0274 -32.6334 0
M  V30 5745 H  -30.1323 9.9836 -34.5431 0
M  V30 5746 H  -30.8305 11.4692 -33.9366 0
M  V30 5747 H  -31.5683 10.6513 -36.3877 0
M  V30 5748 H  -32.8245 11.1527 -35.2473 0
M  V30 5749 H  -33.6843 9.0911 -35.7012 0
M  V30 5750 H  -32.1141 8.3180 -35.9403 0
M  V30 5751 H  -33.4381 11.4869 -29.6985 0
M  V30 5752 H  -31.8947 12.4057 -28.1283 0
M  V30 5753 H  -30.8558 13.0464 -29.3838 0
M  V30 5754 H  -31.1231 10.1813 -28.4934 0
M  V30 5755 H  -29.6270 11.0844 -28.7311 0
M  V30 5756 H  -29.8867 10.9637 -31.1519 0
M  V30 5757 H  -30.5350 9.4071 -30.6116 0
M  V30 5758 H  -34.8671 13.0958 -30.1614 0
M  V30 5759 H  -34.2911 15.0192 -32.3131 0
M  V30 5760 H  -36.7330 15.4758 -32.1375 0
M  V30 5761 H  -36.8526 14.4012 -30.7726 0
M  V30 5762 H  -36.1801 12.4813 -32.2001 0
M  V30 5763 H  -38.3113 12.3587 -33.5113 0
M  V30 5764 H  -38.5481 12.8963 -31.8535 0
M  V30 5765 H  -38.5873 14.0666 -33.1681 0
M  V30 5766 H  -36.6272 13.5060 -34.8532 0
M  V30 5767 H  -35.3648 14.4740 -34.1455 0
M  V30 5768 H  -35.1881 12.7298 -34.2092 0
M  V30 5769 H  -32.7076 16.2143 -31.2038 0
M  V30 5770 H  -33.8696 18.4734 -29.8606 0
M  V30 5771 H  -33.4012 17.4342 -27.8834 0
M  V30 5772 H  -32.0259 18.4732 -28.0260 0
M  V30 5773 H  -31.5739 14.5406 -27.3139 0
M  V30 5774 H  -33.0673 15.4234 -27.1429 0
M  V30 5775 H  -31.9912 20.1919 -29.5075 0
M  V30 5776 H  -31.2427 20.8600 -32.1164 0
M  V30 5777 H  -29.4611 18.9608 -29.8448 0
M  V30 5778 H  -26.7819 19.3472 -30.7221 0
M  V30 5779 H  -26.3859 17.1246 -29.6890 0
M  V30 5780 H  -28.0922 16.8099 -29.6066 0
M  V30 5781 H  -26.6005 17.9497 -26.2788 0
M  V30 5782 H  -25.9651 16.8817 -27.5025 0
M  V30 5783 H  -29.4970 17.6393 -32.1536 0
M  V30 5784 H  -27.7794 16.1535 -34.0839 0
M  V30 5785 H  -29.9660 14.8032 -34.3055 0
M  V30 5786 H  -30.5778 15.6809 -32.9486 0
M  V30 5787 H  -29.5628 15.3734 -30.7050 0
M  V30 5788 H  -28.1840 13.1128 -34.0883 0
M  V30 5789 H  -28.3633 13.8276 -29.1701 0
M  V30 5790 H  -27.0293 11.5303 -32.5698 0
M  V30 5791 H  -26.5709 10.9662 -30.3852 0
M  V30 5792 H  -27.4540 17.5796 -35.7085 0
M  V30 5793 H  -29.7373 19.1012 -36.8319 0
M  V30 5794 H  -26.7576 19.3473 -37.4085 0
M  V30 5795 H  -27.4395 21.5491 -38.4475 0
M  V30 5796 H  -28.0272 20.1601 -39.3356 0
M  V30 5797 H  -29.1247 21.0690 -38.2963 0
M  V30 5798 H  -26.8168 21.4352 -36.0977 0
M  V30 5799 H  -28.4891 21.1426 -35.6524 0
M  V30 5800 H  -27.2199 20.0681 -35.0788 0
M  V30 5801 H  -30.7741 18.1862 -38.3684 0
M  V30 5802 H  -29.7862 16.0313 -40.0977 0
M  V30 5803 H  -32.2061 16.1010 -40.8190 0
M  V30 5804 H  -32.4825 17.4482 -39.7530 0
M  V30 5805 H  -32.2549 17.1278 -37.2299 0
M  V30 5806 H  -32.0909 13.8034 -39.9807 0
M  V30 5807 H  -32.6023 15.5569 -35.3752 0
M  V30 5808 H  -32.4716 12.2609 -38.0986 0
M  V30 5809 H  -32.7344 13.1597 -35.7991 0
M  V30 5810 H  -30.5247 16.2199 -42.4522 0
M  V30 5811 H  -30.6041 18.9644 -43.5515 0
M  V30 5812 H  -28.7287 16.7117 -44.4233 0
M  V30 5813 H  -28.0416 18.1634 -46.3385 0
M  V30 5814 H  -29.6806 17.5959 -46.5625 0
M  V30 5815 H  -29.3928 19.2486 -46.0217 0
M  V30 5816 H  -28.0298 18.2182 -42.8805 0
M  V30 5817 H  -32.3252 19.1689 -44.7436 0
M  V30 5818 H  -34.3195 18.6313 -45.7463 0
M  V30 5819 H  -34.0639 16.9459 -45.4147 0
M  V30 5820 H  -34.6600 16.3536 -47.5550 0
M  V30 5821 H  -32.9954 17.1675 -49.8470 0
M  V30 5822 H  -32.8114 14.6649 -50.3905 0
M  V30 5823 H  -33.3708 14.3134 -48.7862 0
M  V30 5824 H  -31.8347 14.3623 -46.9089 0
M  V30 5825 H  -30.6062 15.7925 -50.7896 0
M  V30 5826 H  -29.4832 14.4028 -46.1431 0
M  V30 5827 H  -28.2409 15.7638 -50.0452 0
M  V30 5828 H  -27.2967 14.8781 -46.7013 0
M  V30 5829 H  -34.2553 17.2927 -51.6962 0
M  V30 5830 H  -36.9994 16.1082 -51.6397 0
M  V30 5831 H  -37.5837 14.5983 -53.1089 0
M  V30 5832 H  -35.4838 13.0202 -54.2947 0
M  V30 5833 H  -38.5214 12.6822 -54.4561 0
M  V30 5834 H  -37.9983 10.2594 -54.7957 0
M  V30 5835 H  -37.3854 11.2374 -56.1125 0
M  V30 5836 H  -36.2821 10.6441 -54.8750 0
M  V30 5837 H  -38.3052 11.1170 -52.5355 0
M  V30 5838 H  -36.6201 11.5890 -52.3432 0
M  V30 5839 H  -37.9092 12.7598 -52.0825 0
M  V30 5840 H  -34.5448 13.8705 -56.1156 0
M  V30 5841 H  -36.0880 15.1572 -58.2346 0
M  V30 5842 H  -34.1229 15.8223 -59.1558 0
M  V30 5843 H  -32.5542 16.6532 -57.4989 0
M  V30 5844 H  -34.2058 16.8204 -56.9127 0
M  V30 5845 H  -33.1688 15.5390 -56.2881 0
M  V30 5846 H  -33.0663 14.0382 -59.6280 0
M  V30 5847 H  -35.2687 14.4167 -60.5951 0
M  V30 5848 H  -36.6347 12.1790 -61.3159 0
M  V30 5849 H  -33.1135 12.1646 -60.4975 0
M  V30 5850 H  -33.2889 9.3203 -59.9593 0
M  V30 5851 H  -31.0309 9.9224 -61.8991 0
M  V30 5852 H  -32.6143 9.9042 -62.5909 0
M  V30 5853 H  -31.8399 6.2589 -60.8561 0
M  V30 5854 H  -31.6230 7.7065 -59.9046 0
M  V30 5855 H  -32.6540 11.9104 -58.5078 0
M  V30 5856 H  -30.6576 10.6895 -56.8713 0
M  V30 5857 H  -29.7911 13.3363 -58.1451 0
M  V30 5858 H  -29.2266 11.7922 -58.7355 0
M  V30 5859 H  -27.7953 12.6788 -57.2520 0
M  V30 5860 H  -29.9071 13.1207 -55.4909 0
M  V30 5861 H  -32.4896 14.1031 -54.4057 0
M  V30 5862 H  -31.6043 12.1960 -52.9955 0
M  V30 5863 H  -31.8496 13.7109 -52.2060 0
M  V30 5864 H  -29.8699 12.8957 -51.2596 0
M  V30 5865 H  -29.3974 14.2144 -52.2474 0
M  V30 5866 H  -27.7572 12.5711 -52.5713 0
M  V30 5867 H  -28.6742 12.5480 -54.0427 0
M  V30 5868 H  -29.9131 10.5032 -53.2731 0
M  V30 5869 H  -29.0785 10.5669 -51.7297 0
M  V30 5870 H  -27.7940 10.1718 -54.3335 0
M  V30 5871 H  -27.0156 10.2352 -52.8812 0
M  V30 5872 H  -28.0749 9.0119 -53.1963 0
M  V30 5873 H  -32.4964 16.2328 -53.7911 0
M  V30 5874 H  -29.9758 17.8060 -54.1281 0
M  V30 5875 H  -31.5795 18.2571 -55.9323 0
M  V30 5876 H  -33.7357 19.3145 -55.6533 0
M  V30 5877 H  -33.7636 17.8173 -54.7439 0
M  V30 5878 H  -33.5859 19.3577 -53.9087 0
M  V30 5879 H  -31.5946 20.7008 -55.7919 0
M  V30 5880 H  -31.3363 20.6534 -54.0553 0
M  V30 5881 H  -30.0836 20.0755 -55.1512 0
M  V30 5882 H  -29.3331 18.9037 -52.3607 0
M  V30 5883 H  -30.6203 18.6302 -49.8671 0
M  V30 5884 H  -28.9821 20.5495 -49.2232 0
M  V30 5885 H  -28.3454 20.4108 -50.8390 0
M  V30 5886 H  -27.7056 18.0549 -50.4289 0
M  V30 5887 H  -28.5798 18.0555 -48.9060 0
M  V30 5888 H  -24.9950 18.3447 -48.0537 0
M  V30 5889 H  -25.9789 17.1925 -48.9185 0
M  V30 5890 H  -31.9394 19.8148 -48.6867 0
M  V30 5891 H  -32.9943 22.3866 -49.7424 0
M  V30 5892 H  -34.3110 19.8892 -49.4479 0
M  V30 5893 H  -34.7319 21.7402 -51.0759 0
M  V30 5894 H  -35.5236 22.6232 -49.7982 0
M  V30 5895 H  -36.0937 20.0505 -47.9093 0
M  V30 5896 H  -34.6311 20.3407 -46.9967 0
M  V30 5897 H  -35.6827 21.6874 -47.4367 0
M  V30 5898 H  -36.8745 21.0296 -51.5498 0
M  V30 5899 H  -36.5636 19.8536 -50.2757 0
M  V30 5900 H  -37.4507 21.3277 -49.9117 0
M  V30 5901 H  -30.8069 21.5924 -47.7940 0
M  V30 5902 H  -31.2330 23.8772 -46.0199 0
M  V30 5903 H  -29.7602 22.9912 -46.3258 0
M  V30 5904 H  -29.8819 23.4841 -43.8289 0
M  V30 5905 H  -30.2797 20.8823 -42.6358 0
M  V30 5906 H  -28.9357 21.8124 -40.7890 0
M  V30 5907 H  -28.9222 23.3746 -41.5594 0
M  V30 5908 H  -27.5419 22.6609 -43.3579 0
M  V30 5909 H  -27.9976 20.9967 -43.1885 0
M  V30 5910 H  -31.2869 20.3908 -40.6908 0
M  V30 5911 H  -33.4057 22.2141 -39.6853 0
M  V30 5912 H  -34.9343 20.1373 -39.7261 0
M  V30 5913 H  -33.7729 19.3536 -40.7526 0
M  V30 5914 H  -36.4702 21.8133 -40.5062 0
M  V30 5915 H  -33.3988 20.2437 -43.0917 0
M  V30 5916 H  -37.5504 22.9017 -42.4550 0
M  V30 5917 H  -34.4661 21.3455 -45.0341 0
M  V30 5918 H  -36.1915 22.6777 -45.7628 0
M  V30 5919 H  -34.1286 21.7210 -37.5827 0
M  V30 5920 H  -32.9436 19.4074 -36.1569 0
M  V30 5921 H  -32.8732 20.8157 -34.0602 0
M  V30 5922 H  -30.7299 21.9843 -34.4927 0
M  V30 5923 H  -30.7382 20.3737 -35.1854 0
M  V30 5924 H  -30.9454 21.7801 -36.2296 0
M  V30 5925 H  -33.0256 23.0153 -35.8162 0
M  V30 5926 H  -34.3606 18.5959 -34.5265 0
M  V30 5927 H  -37.2094 19.4058 -34.8568 0
M  V30 5928 H  -37.7286 16.9460 -34.8115 0
M  V30 5929 H  -36.0236 16.6018 -34.8480 0
M  V30 5930 H  -38.8872 17.9537 -36.8203 0
M  V30 5931 H  -34.7227 16.8837 -36.8956 0
M  V30 5932 H  -38.8900 18.0138 -39.2937 0
M  V30 5933 H  -34.7458 17.0113 -39.3659 0
M  V30 5934 H  -36.8310 17.5773 -40.5447 0
M  V30 5935 H  -38.6425 18.5173 -33.2175 0
M  V30 5936 H  -37.6394 17.7412 -30.6212 0
M  V30 5937 H  -39.0821 20.4264 -30.9208 0
M  V30 5938 H  -37.3485 20.3318 -30.8917 0
M  V30 5939 H  -37.5859 19.1265 -28.6062 0
M  V30 5940 H  -39.2642 19.6150 -28.6290 0
M  V30 5941 H  -39.4839 16.9840 -29.2856 0
M  V30 5942 H  -41.4622 15.7087 -30.8718 0
M  V30 5943 H  -41.3767 16.0671 -27.8432 0
M  V30 5944 H  -40.4146 14.8978 -28.7035 0
M  V30 5945 H  -42.3673 13.6793 -29.4808 0
M  V30 5946 H  -43.4603 14.8737 -28.8612 0
M  V30 5947 H  -43.5093 13.9764 -26.8196 0
M  V30 5948 H  -41.7926 14.0352 -26.6444 0
M  V30 5949 H  -43.2781 11.7696 -28.0966 0
M  V30 5950 H  -42.8278 11.7316 -26.4031 0
M  V30 5951 H  -40.5534 11.9487 -27.0060 0
M  V30 5952 H  -41.2258 10.6158 -27.7154 0
M  V30 5953 H  -40.9288 11.9695 -28.6120 0
M  V30 5954 H  -43.5968 16.1154 -31.2900 0
M  V30 5955 H  -45.3754 17.4627 -31.8060 0
M  V30 5956 H  -44.7129 18.7976 -30.8916 0
M  V30 5957 H  -45.5445 16.6254 -29.0193 0
M  V30 5958 H  -46.6181 12.5040 -34.4355 0
M  V30 5959 H  -44.9996 12.3559 -34.4848 0
M  V30 5960 H  -45.4631 14.1985 -35.8223 0
M  V30 5961 H  -46.8682 16.0962 -35.0384 0
M  V30 5962 H  -47.7879 14.6007 -35.0633 0
M  V30 5963 H  -47.2079 15.2484 -33.5327 0
M  V30 5964 H  -43.9887 15.8737 -35.8841 0
M  V30 5965 H  -42.3973 16.5341 -33.4417 0
M  V30 5966 H  -40.4208 16.6359 -34.8273 0
M  V30 5967 H  -39.9759 14.3101 -35.2205 0
M  V30 5968 H  -41.0024 14.4456 -33.8030 0
M  V30 5969 H  -41.6909 13.9254 -35.3402 0
M  V30 5970 H  -40.3210 15.8873 -37.1924 0
M  V30 5971 H  -42.0788 15.7983 -37.2460 0
M  V30 5972 H  -41.2617 17.3436 -37.0356 0
M  V30 5973 H  -41.2084 18.5423 -33.6484 0
M  V30 5974 H  -42.5961 20.6944 -35.1622 0
M  V30 5975 H  -41.0030 20.7749 -32.5447 0
M  V30 5976 H  -41.7541 23.1192 -32.3086 0
M  V30 5977 H  -40.7606 22.9476 -33.7380 0
M  V30 5978 H  -42.5128 23.0594 -33.8914 0
M  V30 5979 H  -43.1321 21.2922 -31.4138 0
M  V30 5980 H  -44.0058 21.0320 -32.9197 0
M  V30 5981 H  -43.1453 19.7031 -32.1499 0
M  V30 5982 H  -41.2910 21.3422 -36.8922 0
M  V30 5983 H  -38.3811 20.8145 -36.7736 0
M  V30 5984 H  -39.7113 19.9463 -38.6675 0
M  V30 5985 H  -38.3506 20.9262 -39.1063 0
M  V30 5986 H  -38.6364 23.0927 -40.2746 0
M  V30 5987 H  -42.0030 20.6639 -39.1210 0
M  V30 5988 H  -40.0716 24.3111 -41.8928 0
M  V30 5989 H  -43.4304 21.8526 -40.7674 0
M  V30 5990 H  -43.5217 23.4682 -42.4185 0
M  V30 5991 H  -36.8429 22.2900 -36.9762 0
M  V30 5992 H  -37.4746 25.2010 -37.1561 0
M  V30 5993 H  -37.1041 25.1796 -39.3976 0
M  V30 5994 H  -35.9541 24.9690 -41.3810 0
M  V30 5995 H  -34.7478 23.9534 -40.6106 0
M  V30 5996 H  -32.8384 24.9269 -41.0792 0
M  V30 5997 H  -32.0137 27.4790 -40.0642 0
M  V30 5998 H  -33.2835 26.3122 -43.1306 0
M  V30 5999 H  -33.4912 29.0627 -44.2339 0
M  V30 6000 H  -31.9731 27.8430 -45.6606 0
M  V30 6001 H  -32.5542 25.6436 -46.7296 0
M  V30 6002 H  -32.3352 25.5092 -44.9919 0
M  V30 6003 H  -33.9493 25.4929 -45.6633 0
M  V30 6004 H  -33.2473 27.5847 -47.5653 0
M  V30 6005 H  -35.4602 29.4907 -45.3166 0
M  V30 6006 H  -37.7895 28.0286 -44.2845 0
M  V30 6007 H  -37.9433 30.3490 -43.9376 0
M  V30 6008 H  -37.8383 32.1044 -45.6578 0
M  V30 6009 H  -36.3016 31.2673 -45.6038 0
M  V30 6010 H  -37.4372 30.9452 -46.9097 0
M  V30 6011 H  -39.4723 29.8844 -46.2559 0
M  V30 6012 H  -38.5056 26.3559 -45.4097 0
M  V30 6013 H  -38.9280 26.6064 -48.3371 0
M  V30 6014 H  -38.6038 23.9466 -48.1740 0
M  V30 6015 H  -37.6009 24.3270 -46.8164 0
M  V30 6016 H  -38.0793 24.5059 -50.4668 0
M  V30 6017 H  -35.4472 25.5493 -47.2223 0
M  V30 6018 H  -36.2353 24.8544 -52.0844 0
M  V30 6019 H  -33.5823 25.8786 -48.8432 0
M  V30 6020 H  -34.0101 25.3941 -52.3645 0
M  V30 6021 H  -40.7706 25.7051 -49.0792 0
M  V30 6022 H  -42.9093 24.9665 -47.1798 0
M  V30 6023 H  -41.3361 23.1040 -46.5950 0
M  V30 6024 H  -40.7655 21.0576 -48.4161 0
M  V30 6025 H  -39.4090 21.1055 -46.6025 0
M  V30 6026 H  -40.3163 19.6525 -46.3553 0
M  V30 6027 H  -40.7652 22.3126 -44.9233 0
M  V30 6028 H  -42.0064 20.5517 -43.2623 0
M  V30 6029 H  -42.8478 21.4437 -44.5066 0
M  V30 6030 H  -42.3522 19.7752 -44.7977 0
M  V30 6031 H  -39.2751 21.7358 -43.3685 0
M  V30 6032 H  -39.8120 20.0736 -43.2570 0
M  V30 6033 H  -38.6634 20.5349 -44.4935 0
M  V30 6034 H  -41.6699 19.2757 -49.0907 0
M  V30 6035 H  -44.5465 18.8818 -48.5267 0
M  V30 6036 H  -44.3330 19.7237 -50.6996 0
M  V30 6037 H  -44.6249 18.0292 -50.9188 0
M  V30 6038 H  -41.6516 17.5791 -52.8197 0
M  V30 6039 H  -43.1166 16.8742 -52.1912 0
M  V30 6040 H  -45.2910 16.6203 -49.0962 0
M  V30 6041 H  -44.0315 14.6921 -47.4558 0
M  V30 6042 H  -46.1909 14.4871 -49.5879 0
M  V30 6043 H  -46.8730 12.3053 -48.5984 0
M  V30 6044 H  -45.3137 12.1892 -49.3770 0
M  V30 6045 H  -45.4192 12.2869 -47.6191 0
M  V30 6046 H  -47.7374 14.3438 -47.6264 0
M  V30 6047 H  -46.3718 14.5807 -46.5446 0
M  V30 6048 H  -46.8566 15.8603 -47.6516 0
M  V30 6049 H  -42.6703 13.0475 -47.8287 0
M  V30 6050 H  -41.7311 12.3716 -50.5791 0
M  V30 6051 H  -41.5300 11.4438 -49.1101 0
M  V30 6052 H  -40.8340 14.8653 -48.6143 0
M  V30 6053 H  -38.0464 14.7194 -49.2306 0
M  V30 6054 H  -37.8043 16.7333 -47.6694 0
M  V30 6055 H  -39.5236 16.6351 -47.3815 0
M  V30 6056 H  -36.2518 14.2730 -47.8748 0
M  V30 6057 H  -36.9230 12.9884 -45.2802 0
M  V30 6058 H  -36.8206 11.3128 -47.1569 0
M  V30 6059 H  -35.7278 11.0395 -45.8504 0
M  V30 6060 H  -35.9306 12.0708 -49.3993 0
M  V30 6061 H  -33.3070 11.1286 -46.1068 0
M  V30 6062 H  -34.0367 11.8103 -50.9771 0
M  V30 6063 H  -31.4157 10.8566 -47.6827 0
M  V30 6064 H  -31.8222 11.2786 -51.2165 0
M  V30 6065 H  -35.3458 12.6859 -43.7887 0
M  V30 6066 H  -33.3370 14.8750 -43.7448 0
M  V30 6067 H  -33.9737 15.0486 -41.3495 0
M  V30 6068 H  -35.1239 13.7672 -41.5279 0
M  V30 6069 H  -34.2792 17.2030 -42.8450 0
M  V30 6070 H  -37.3463 14.2245 -42.2366 0
M  V30 6071 H  -36.0076 18.7779 -43.6405 0
M  V30 6072 H  -39.0323 15.8416 -42.9474 0
M  V30 6073 H  -38.3744 18.1055 -43.6847 0
M  V30 6074 H  -31.2838 14.2269 -43.4342 0
M  V30 6075 H  -30.7056 11.8175 -41.7806 0
M  V30 6076 H  -29.2143 12.5431 -44.3594 0
M  V30 6077 H  -28.1674 10.2789 -44.0959 0
M  V30 6078 H  -27.7290 11.3629 -42.8005 0
M  V30 6079 H  -28.9445 10.1156 -42.5260 0
M  V30 6080 H  -30.2167 10.3832 -45.2885 0
M  V30 6081 H  -31.3626 10.4515 -43.9426 0
M  V30 6082 H  -31.3175 11.7398 -45.1400 0
M  V30 6083 H  -29.0094 12.0688 -40.4349 0
M  V30 6084 H  -27.8826 14.6376 -39.8154 0
M  V30 6085 H  -26.5195 13.2089 -38.2218 0
M  V30 6086 H  -27.1476 11.7805 -38.9951 0
M  V30 6087 H  -29.4993 12.5133 -38.3467 0
M  V30 6088 H  -28.9798 11.9891 -35.7937 0
M  V30 6089 H  -28.8171 10.7853 -37.0443 0
M  V30 6090 H  -27.3821 11.6021 -36.4322 0
M  V30 6091 H  -29.2959 14.1569 -36.2218 0
M  V30 6092 H  -27.9672 14.8083 -37.1631 0
M  V30 6093 H  -29.5873 14.7485 -37.8387 0
M  V30 6094 H  -26.4147 15.6148 -41.1777 0
M  V30 6095 H  -25.0798 14.1405 -43.1820 0
M  V30 6096 H  -24.4516 17.0146 -42.3615 0
M  V30 6097 H  -23.8323 17.2844 -44.7385 0
M  V30 6098 H  -22.8732 15.9567 -44.0946 0
M  V30 6099 H  -24.2718 15.6166 -45.0958 0
M  V30 6100 H  -26.0531 17.4825 -43.8815 0
M  V30 6101 H  -23.6372 12.6615 -42.5969 0
M  V30 6102 H  -21.4786 13.0870 -40.7378 0
M  V30 6103 H  -22.0925 10.9118 -42.7961 0
M  V30 6104 H  -22.4757 10.8683 -41.0829 0
M  V30 6105 H  -20.3855 10.6231 -40.5931 0
M  V30 6106 H  -19.3346 13.5793 -41.2103 0
M  V30 6107 H  -18.6339 14.2977 -44.0275 0
M  V30 6108 H  -17.3163 16.2037 -42.9494 0
M  V30 6109 H  -18.1455 15.8649 -41.4512 0
M  V30 6110 H  -20.2475 17.7296 -41.2306 0
M  V30 6111 H  -19.3739 16.2783 -45.0943 0
M  V30 6112 H  -21.3012 17.9037 -45.2702 0
M  V30 6113 H  -16.5490 14.1253 -44.6492 0
M  V30 6114 H  -15.1959 11.8267 -43.7888 0
M  V30 6115 H  -14.1941 14.1290 -45.5488 0
M  V30 6116 H  -12.7831 12.3804 -46.6654 0
M  V30 6117 H  -12.2876 12.6152 -45.0017 0
M  V30 6118 H  -13.2572 11.2105 -45.4365 0
M  V30 6119 H  -14.9329 12.6785 -47.2045 0
M  V30 6120 H  -13.9059 11.5406 -42.0763 0
M  V30 6121 H  -12.6584 13.7757 -40.6591 0
M  V30 6122 H  -12.6126 10.7576 -40.1925 0
M  V30 6123 H  -11.7732 11.2715 -37.9056 0
M  V30 6124 H  -10.5922 11.7137 -39.1175 0
M  V30 6125 H  -11.5788 12.9608 -38.3529 0
M  V30 6126 H  -14.1540 11.3841 -38.2796 0
M  V30 6127 H  -14.2759 12.9927 -38.9627 0
M  V30 6128 H  -14.8549 11.5964 -39.8668 0
M  V30 6129 H  -10.7307 14.5583 -41.2193 0
M  V30 6130 H  -9.0393 13.1666 -43.1053 0
M  V30 6131 H  -7.7064 15.3470 -42.9396 0
M  V30 6132 H  -8.8615 15.9092 -41.7787 0
M  V30 6133 H  -9.4351 16.8051 -43.9692 0
M  V30 6134 H  -10.6942 15.7115 -43.4755 0
M  V30 6135 H  -7.6149 14.9752 -46.8626 0
M  V30 6136 H  -7.7803 16.4669 -45.9274 0
M  V30 6137 H  -7.0840 15.0203 -45.1795 0
M  V30 6138 H  -5.9850 11.7311 -40.1414 0
M  V30 6139 H  -4.1040 11.0010 -41.3747 0
M  V30 6140 H  -3.8675 12.5750 -42.1181 0
M  V30 6141 H  -5.8899 10.4745 -42.8721 0
M  V30 6142 H  -4.8205 11.3710 -43.9525 0
M  V30 6143 H  -6.1169 13.4198 -43.5981 0
M  V30 6144 H  -7.3356 12.1403 -43.7078 0
M  V30 6145 H  -4.8075 12.5825 -38.4447 0
M  V30 6146 H  -4.2468 15.4920 -38.3628 0
M  V30 6147 H  -3.8424 14.9243 -35.9182 0
M  V30 6148 H  -4.2580 13.2773 -36.2595 0
M  V30 6149 H  -6.5438 13.9407 -36.8996 0
M  V30 6150 H  -7.2206 13.7703 -34.7384 0
M  V30 6151 H  -5.5172 13.6871 -34.3691 0
M  V30 6152 H  -6.3412 15.2101 -34.2150 0
M  V30 6153 H  -6.9755 16.5380 -35.9318 0
M  V30 6154 H  -5.5096 16.7030 -36.8783 0
M  V30 6155 H  -6.9577 16.0387 -37.6093 0
M  V30 6156 H  -2.2110 16.3011 -38.1519 0
M  V30 6157 H  0.0982 14.4214 -38.3097 0
M  V30 6158 H  -0.4681 15.3496 -40.5298 0
M  V30 6159 H  1.0948 15.8924 -39.9653 0
M  V30 6160 H  -0.1706 17.5675 -40.8695 0
M  V30 6161 H  -0.7737 17.8507 -37.5498 0
M  V30 6162 H  1.5906 18.2787 -35.9809 0
M  V30 6163 H  0.4672 20.4824 -35.5283 0
M  V30 6164 H  0.4039 20.0799 -37.2360 0
M  V30 6165 H  -1.0228 19.8679 -36.2249 0
M  V30 6166 H  0.0132 16.7684 -32.0376 0
M  V30 6167 H  2.2034 17.0677 -31.3026 0
M  V30 6168 H  1.4448 18.2311 -30.2369 0
M  V30 6169 H  3.4582 19.1045 -31.7798 0
M  V30 6170 H  1.9735 20.0571 -31.7709 0
M  V30 6171 H  2.1566 19.6533 -34.0965 0
M  V30 6172 H  2.8330 18.0347 -33.8624 0
M  V30 6173 H  -1.3072 17.3551 -30.2012 0
M  V30 6174 H  -3.3233 19.3217 -30.6216 0
M  V30 6175 H  -4.1097 18.6938 -28.3979 0
M  V30 6176 H  -4.3248 16.2495 -28.5710 0
M  V30 6177 H  -4.5304 16.9873 -30.1592 0
M  V30 6178 H  -3.0354 16.1689 -29.7503 0
M  V30 6179 H  -1.7240 17.2310 -28.0326 0
M  V30 6180 H  -0.2817 19.3420 -28.7499 0
M  V30 6181 H  -0.4785 22.2927 -28.5267 0
M  V30 6182 H  0.8857 21.9203 -26.3130 0
M  V30 6183 H  0.2885 20.2896 -26.3467 0
M  V30 6184 H  -2.0753 21.2445 -26.3383 0
M  V30 6185 H  -2.0662 21.7263 -23.9325 0
M  V30 6186 H  -0.9597 20.4013 -24.2791 0
M  V30 6187 H  -0.3240 22.0151 -23.9874 0
M  V30 6188 H  -1.6046 23.8344 -25.2117 0
M  V30 6189 H  -0.6576 23.7893 -26.6829 0
M  V30 6190 H  -2.3823 23.4572 -26.7409 0
M  V30 6191 H  1.2785 23.2401 -29.3118 0
M  V30 6192 H  3.5747 21.8500 -30.3168 0
M  V30 6193 H  4.5229 24.1192 -30.5571 0
M  V30 6194 H  2.9241 25.0868 -32.1082 0
M  V30 6195 H  2.9183 23.3353 -32.2699 0
M  V30 6196 H  1.6119 24.1500 -31.4133 0
M  V30 6197 H  3.2676 26.1782 -29.9166 0
M  V30 6198 H  2.1864 25.2014 -28.9357 0
M  V30 6199 H  3.9011 25.3094 -28.5368 0
M  V30 6200 H  5.9352 21.5217 -26.4816 0
M  V30 6201 H  7.6733 20.5576 -27.6383 0
M  V30 6202 H  8.5314 22.0558 -27.3146 0
M  V30 6203 H  8.2640 21.2840 -29.8746 0
M  V30 6204 H  7.9136 22.9627 -29.4615 0
M  V30 6205 H  5.8814 22.3478 -30.5204 0
M  V30 6206 H  5.8966 20.7233 -29.8313 0
M  V30 6207 H  5.9861 22.9102 -24.8050 0
M  V30 6208 H  5.5969 25.6838 -25.1556 0
M  V30 6209 H  6.3592 24.0683 -22.6740 0
M  V30 6210 H  4.7405 24.3134 -23.2236 0
M  V30 6211 H  6.5875 26.5341 -22.2025 0
M  V30 6212 H  5.3406 25.7413 -21.2877 0
M  V30 6213 H  2.8134 27.9366 -22.3475 0
M  V30 6214 H  3.3523 26.7172 -21.2185 0
M  V30 6215 H  6.9351 27.3878 -25.1414 0
M  V30 6216 H  9.7906 27.0764 -24.3388 0
M  V30 6217 H  10.4948 28.5030 -26.0750 0
M  V30 6218 H  8.9101 29.0582 -26.4698 0
M  V30 6219 H  8.4117 26.6971 -27.3913 0
M  V30 6220 H  10.0639 26.2640 -27.0352 0
M  V30 6221 H  10.3980 28.6252 -22.8594 0
M  V30 6222 H  8.5041 30.8683 -22.2499 0
M  V30 6223 H  9.7072 30.7890 -19.9748 0
M  V30 6224 H  10.2845 29.2039 -20.4170 0
M  V30 6225 H  6.8745 31.0771 -19.5262 0
M  V30 6226 H  6.1950 26.9315 -19.3806 0
M  V30 6227 H  9.2800 32.8528 -22.4028 0
M  V30 6228 H  12.1078 33.2168 -23.3057 0
M  V30 6229 H  11.2727 35.0395 -24.6610 0
M  V30 6230 H  9.7146 34.9918 -23.8925 0
M  V30 6231 H  11.8182 32.3426 -25.6093 0
M  V30 6232 H  8.0432 34.4246 -25.3724 0
M  V30 6233 H  10.9050 30.9072 -27.4039 0
M  V30 6234 H  7.1275 32.9513 -27.1462 0
M  V30 6235 H  9.0356 30.3523 -28.6477 0
M  V30 6236 H  13.2249 35.0024 -22.5752 0
M  V30 6237 H  12.4747 36.0522 -19.9505 0
M  V30 6238 H  14.7271 35.1410 -20.5326 0
M  V30 6239 H  16.3781 36.4695 -21.7693 0
M  V30 6240 H  15.0391 36.0422 -22.8211 0
M  V30 6241 H  15.1666 37.6736 -22.1742 0
M  V30 6242 H  16.0369 36.7208 -19.2599 0
M  V30 6243 H  14.8892 38.0150 -19.5445 0
M  V30 6244 H  14.4274 36.6246 -18.5639 0
M  V30 6245 H  11.9803 37.0583 -23.1821 0
M  V30 6246 H  11.1261 39.7582 -22.3214 0
M  V30 6247 H  12.0003 40.5733 -24.6180 0
M  V30 6248 H  12.8984 39.0903 -24.7312 0
M  V30 6249 H  14.0606 39.7751 -22.5769 0
M  V30 6250 H  13.2529 41.3068 -22.6004 0
M  V30 6251 H  15.3343 41.8257 -23.7023 0
M  V30 6252 H  14.2856 41.4878 -25.0457 0
M  V30 6253 H  15.2319 39.5661 -25.6048 0
M  V30 6254 H  17.8684 39.2453 -22.5179 0
M  V30 6255 H  16.6831 40.5226 -22.4810 0
M  V30 6256 H  17.9242 37.7717 -24.3034 0
M  V30 6257 H  16.7901 37.9269 -25.6144 0
M  V30 6258 H  9.6158 40.6956 -23.8631 0
M  V30 6259 H  7.6988 38.9157 -25.0003 0
M  V30 6260 H  8.1690 41.8918 -25.3068 0
M  V30 6261 H  7.3879 40.9485 -23.0498 0
M  V30 6262 H  5.9280 40.4396 -23.8393 0
M  V30 6263 H  5.9273 42.0981 -26.3477 0
M  V30 6264 H  6.9713 41.1500 -27.3665 0
M  V30 6265 H  5.7568 40.3497 -26.3840 0
M  V30 6266 H  6.2248 42.8559 -22.5950 0
M  V30 6267 H  6.6587 43.3448 -24.2239 0
M  V30 6268 H  5.0861 42.6181 -23.9186 0
M  V30 6269 H  7.8853 37.8183 -26.8621 0
M  V30 6270 H  10.2082 38.3735 -28.6237 0
M  V30 6271 H  8.5318 35.8931 -28.0041 0
M  V30 6272 H  10.2319 34.5861 -29.3027 0
M  V30 6273 H  9.2743 35.5981 -30.3637 0
M  V30 6274 H  10.9127 36.0855 -29.9272 0
M  V30 6275 H  10.0286 36.5706 -26.4618 0
M  V30 6276 H  9.8039 39.3831 -30.4850 0
M  V30 6277 H  8.1772 38.2677 -32.5046 0
M  V30 6278 H  9.0531 39.7767 -32.5755 0
M  V30 6279 H  7.1008 40.3226 -29.9745 0
M  V30 6280 H  4.9171 41.5786 -31.5878 0
M  V30 6281 H  3.6280 41.5057 -29.4780 0
M  V30 6282 H  4.9239 40.6864 -28.6580 0
M  V30 6283 H  4.5568 38.7167 -30.1393 0
M  V30 6284 H  2.6436 37.9000 -28.9011 0
M  V30 6285 H  3.4046 39.0858 -27.8494 0
M  V30 6286 H  1.9598 39.4968 -28.7571 0
M  V30 6287 H  2.6933 38.5037 -31.6091 0
M  V30 6288 H  1.9668 40.0129 -31.0829 0
M  V30 6289 H  3.4214 40.0301 -32.0736 0
M  V30 6290 H  4.5480 43.7563 -31.1825 0
M  V30 6291 H  6.6869 45.1637 -29.6378 0
M  V30 6292 H  6.5402 46.8905 -31.3873 0
M  V30 6293 H  5.4280 45.8969 -32.2927 0
M  V30 6294 H  8.8580 45.8955 -30.7515 0
M  V30 6295 H  6.2716 44.1690 -33.7480 0
M  V30 6296 H  10.7622 44.5784 -31.6387 0
M  V30 6297 H  8.1753 42.8614 -34.6363 0
M  V30 6298 H  10.4202 42.3702 -34.4419 0
M  V30 6299 H  2.7389 46.1481 -27.6837 0
M  V30 6300 H  3.6004 45.3426 -25.7134 0
M  V30 6301 H  3.6477 47.0293 -25.2329 0
M  V30 6302 H  5.9335 45.6229 -25.1453 0
M  V30 6303 H  5.9548 47.2261 -25.8814 0
M  V30 6304 H  6.8267 46.0097 -27.6720 0
M  V30 6305 H  5.8686 44.5624 -27.3130 0
M  V30 6306 H  1.4690 47.9536 -27.3467 0
M  V30 6307 H  2.2045 50.4423 -28.5128 0
M  V30 6308 H  -0.1279 49.5293 -28.4307 0
M  V30 6309 H  -1.5501 49.6811 -26.4718 0
M  V30 6310 H  -0.1542 48.7222 -25.9957 0
M  V30 6311 H  -0.2847 50.4019 -25.4941 0
M  V30 6312 H  -1.0751 51.5699 -27.6790 0
M  V30 6313 H  2.5341 52.5048 -27.5624 0
M  V30 6314 H  3.5701 52.5754 -24.8100 0
M  V30 6315 H  3.7945 55.1000 -25.4701 0
M  V30 6316 H  3.3261 54.6079 -27.0700 0
M  V30 6317 H  5.2962 53.0435 -27.1097 0
M  V30 6318 H  6.4860 54.6867 -28.0851 0
M  V30 6319 H  5.2906 55.8296 -27.5015 0
M  V30 6320 H  6.7503 55.5515 -26.5798 0
M  V30 6321 H  7.0381 53.9471 -25.0923 0
M  V30 6322 H  5.5092 53.7884 -24.2518 0
M  V30 6323 H  6.1866 52.4181 -25.1196 0
M  V30 6324 H  0.5766 53.3302 -26.5135 0
M  V30 6325 H  -0.6031 54.5658 -24.0378 0
M  V30 6326 H  -1.8760 56.0531 -25.4800 0
M  V30 6327 H  -1.2734 55.3028 -26.9326 0
M  V30 6328 H  1.4681 57.4448 -27.2645 0
M  V30 6329 H  0.4253 56.2388 -27.9719 0
M  V30 6330 H  -1.8354 52.9774 -23.2189 0
M  V30 6331 H  -3.7325 51.5714 -25.0503 0
M  V30 6332 H  -2.1181 50.0791 -23.8314 0
M  V30 6333 H  -4.9733 49.6224 -22.9006 0
M  V30 6334 H  -3.7136 48.4394 -22.9701 0
M  V30 6335 H  -2.2178 49.6849 -21.4488 0
M  V30 6336 H  -1.8563 51.3798 -21.7067 0
M  V30 6337 H  -3.4776 50.8841 -21.2201 0
M  V30 6338 H  -4.8571 47.9564 -24.9456 0
M  V30 6339 H  -5.2653 49.6346 -25.2686 0
M  V30 6340 H  -3.6316 49.0442 -25.5775 0
M  V30 6341 H  -5.8864 51.5699 -24.4699 0
M  V30 6342 H  -6.9484 53.7159 -22.8894 0
M  V30 6343 H  -8.1514 51.2447 -24.2312 0
M  V30 6344 H  -8.1399 52.8792 -24.8467 0
M  V30 6345 H  -10.1414 52.3056 -23.8943 0
M  V30 6346 H  -8.0300 53.6461 -20.8788 0
M  V30 6347 H  -6.9814 51.8564 -18.9400 0
M  V30 6348 H  -7.4979 54.1154 -18.3134 0
M  V30 6349 H  -8.2902 52.9795 -17.2743 0
M  V30 6350 H  -9.6725 51.5194 -21.0473 0
M  V30 6351 H  -11.3122 49.6658 -19.7035 0
M  V30 6352 H  -11.8896 48.9467 -22.0506 0
M  V30 6353 H  -10.5519 49.8796 -22.6536 0
M  V30 6354 H  -11.6455 51.9973 -21.7784 0
M  V30 6355 H  -12.9847 51.0408 -21.2107 0
M  V30 6356 H  -8.1593 49.2322 -21.3245 0
M  V30 6357 H  -8.2826 46.2725 -20.9192 0
M  V30 6358 H  -6.6943 46.1654 -22.7864 0
M  V30 6359 H  -6.6193 47.9027 -22.8927 0
M  V30 6360 H  -8.9822 44.9885 -23.2003 0
M  V30 6361 H  -8.2346 49.1160 -24.1668 0
M  V30 6362 H  -10.9184 45.0071 -24.7349 0
M  V30 6363 H  -10.2123 49.1145 -25.6465 0
M  V30 6364 H  -11.5119 47.0420 -25.9525 0
M  V30 6365 H  -7.0102 48.9369 -19.3780 0
M  V30 6366 H  -4.3080 48.2943 -19.0161 0
M  V30 6367 H  -5.2878 50.4998 -18.5486 0
M  V30 6368 H  -4.3267 49.8996 -17.2275 0
M  V30 6369 H  -7.1487 49.9842 -17.3643 0
M  V30 6370 H  -7.1298 46.8611 -17.4647 0
M  V30 6371 H  -5.8714 45.6662 -15.2258 0
M  V30 6372 H  -8.3446 46.0279 -15.5319 0
M  V30 6373 H  -7.9341 44.3984 -15.0537 0
M  V30 6374 H  -8.2536 43.6913 -17.1366 0
M  V30 6375 H  -5.7960 44.8012 -18.6148 0
M  V30 6376 H  -4.9111 42.0104 -18.0548 0
M  V30 6377 H  -5.5225 41.6637 -20.4524 0
M  V30 6378 H  -5.9509 43.3591 -20.5882 0
M  V30 6379 H  -9.2747 42.2749 -20.0915 0
M  V30 6380 H  -8.1040 43.0015 -21.1659 0
M  V30 6381 H  -3.3617 44.9635 -18.4654 0
M  V30 6382 H  -1.5980 44.4897 -20.5906 0
M  V30 6383 H  -1.4516 46.2448 -18.1407 0
M  V30 6384 H  0.5157 47.4640 -19.1521 0
M  V30 6385 H  0.9417 45.8978 -18.5040 0
M  V30 6386 H  0.7579 46.1083 -20.2454 0
M  V30 6387 H  -1.8216 48.0465 -19.7336 0
M  V30 6388 H  -1.6381 46.9495 -21.1006 0
M  V30 6389 H  -3.0167 46.7897 -20.0321 0
M  V30 6390 H  -1.1628 43.5669 -17.1296 0
M  V30 6391 H  1.4739 42.5275 -17.4171 0
M  V30 6392 H  0.9652 41.4207 -15.2296 0
M  V30 6393 H  0.4840 43.1107 -15.2265 0
M  V30 6394 H  -0.7350 41.8511 -15.4030 0
M  V30 6395 H  -1.7398 41.0710 -17.9374 0
M  V30 6396 H  -0.7496 38.3957 -18.3377 0
M  V30 6397 H  -3.1366 38.0626 -19.2028 0
M  V30 6398 H  -3.4290 39.7561 -18.8817 0
M  V30 6399 H  -2.6188 37.8173 -15.3470 0
M  V30 6400 H  -1.3713 38.0404 -16.5439 0
M  V30 6401 H  -1.5145 41.1830 -20.5258 0
M  V30 6402 H  -1.1239 39.7230 -22.9669 0
M  V30 6403 H  -0.8347 41.9725 -23.9886 0
M  V30 6404 H  -0.7554 42.7046 -22.4090 0
M  V30 6405 H  -3.2609 40.0230 -23.3078 0
M  V30 6406 H  -2.5187 44.2543 -22.8061 0
M  V30 6407 H  -5.6655 40.4620 -23.4289 0
M  V30 6408 H  -4.9437 44.6897 -22.9546 0
M  V30 6409 H  -7.3023 42.0756 -23.5711 0
M  V30 6410 H  1.1453 41.4302 -20.7764 0
M  V30 6411 H  3.4485 41.0687 -22.4470 0
M  V30 6412 H  4.6681 41.4324 -20.2361 0
M  V30 6413 H  3.1045 41.5855 -19.4749 0
M  V30 6414 H  2.5661 43.5289 -21.0022 0
M  V30 6415 H  4.0890 43.3214 -21.8056 0
M  V30 6416 H  4.8710 46.0582 -19.5948 0
M  V30 6417 H  4.1273 45.6943 -21.1349 0
M  V30 6418 H  1.8765 38.9969 -19.9808 0
M  V30 6419 H  3.8767 36.9752 -19.9745 0
M  V30 6420 H  0.9372 36.8804 -19.1851 0
M  V30 6421 H  2.3065 37.2248 -18.1645 0
M  V30 6422 H  3.1902 34.8763 -18.7750 0
M  V30 6423 H  1.6400 34.5589 -19.4956 0
M  V30 6424 H  0.6579 34.1396 -17.5100 0
M  V30 6425 H  1.1916 35.6342 -16.8248 0
M  V30 6426 H  2.1006 33.8864 -15.4467 0
M  V30 6427 H  3.4538 34.5772 -16.3183 0
M  V30 6428 H  3.2933 32.7143 -17.8566 0
M  V30 6429 H  3.5253 32.2083 -16.3060 0
M  V30 6430 H  2.0374 32.0867 -16.9966 0
M  V30 6431 H  1.0038 37.4762 -22.0748 0
M  V30 6432 H  1.1072 35.0677 -23.5320 0
M  V30 6433 H  0.1527 37.8648 -24.1977 0
M  V30 6434 H  -0.9807 36.9997 -26.2622 0
M  V30 6435 H  0.7435 37.1691 -26.4309 0
M  V30 6436 H  0.0416 35.5704 -26.1822 0
M  V30 6437 H  -2.0694 36.9770 -24.0492 0
M  V30 6438 H  -1.4743 35.3341 -23.9068 0
M  V30 6439 H  -1.1924 36.4818 -22.6132 0
M  V30 6440 H  3.0018 38.0758 -23.9212 0
M  V30 6441 H  4.6538 38.6647 -25.3728 0
M  V30 6442 H  4.2853 37.3059 -26.4134 0
M  V30 6443 H  4.8755 36.5557 -23.0129 0
M  V30 6444 H  7.7605 36.0361 -23.4311 0
M  V30 6445 H  7.6527 35.8662 -20.8548 0
M  V30 6446 H  6.0372 36.4985 -20.9767 0
M  V30 6447 H  6.9895 38.5130 -22.2158 0
M  V30 6448 H  8.5744 37.8082 -22.0505 0
M  V30 6449 H  9.5664 38.1751 -18.3971 0
M  V30 6450 H  8.7869 36.7172 -19.0191 0
M  V30 6451 H  9.9731 37.5748 -20.0093 0
M  V30 6452 H  5.3087 34.1678 -24.2153 0
M  V30 6453 H  6.9561 31.8807 -23.9308 0
M  V30 6454 H  6.0484 31.6173 -21.7291 0
M  V30 6455 H  5.3378 30.3930 -22.7227 0
M  V30 6456 H  3.2084 31.6274 -22.8720 0
M  V30 6457 H  3.9054 33.0094 -22.0885 0
M  V30 6458 H  2.4242 30.0234 -19.7876 0
M  V30 6459 H  2.3479 30.0004 -21.5320 0
M  V30 6460 H  6.2503 30.0513 -25.1377 0
M  V30 6461 H  5.3677 30.7642 -27.6786 0
M  V30 6462 H  5.5489 27.9862 -26.3994 0
M  V30 6463 H  6.8834 28.8593 -27.0844 0
M  V30 6464 H  4.4843 27.9049 -28.7099 0
M  V30 6465 H  6.0010 27.0698 -28.5625 0
M  V30 6466 H  7.2003 29.0316 -29.5277 0
M  V30 6467 H  5.6835 29.8775 -29.7186 0
M  V30 6468 H  4.8767 28.1471 -31.3082 0
M  V30 6469 H  6.3511 27.2216 -31.0770 0
M  V30 6470 H  7.5901 29.0716 -31.9407 0
M  V30 6471 H  6.4636 28.5499 -33.0294 0
M  V30 6472 H  6.2000 29.9343 -32.1755 0
M  V30 6473 H  3.5682 29.1387 -25.0325 0
M  V30 6474 H  1.1787 30.1784 -26.2388 0
M  V30 6475 H  1.2905 27.8460 -27.2078 0
M  V30 6476 H  -0.1175 28.1401 -26.2329 0
M  V30 6477 H  -0.4427 27.0535 -24.0231 0
M  V30 6478 H  2.9877 26.2258 -26.5131 0
M  V30 6479 H  0.0605 25.0472 -22.6646 0
M  V30 6480 H  3.4612 24.2026 -25.1745 0
M  V30 6481 H  2.8415 22.8911 -23.4177 0
M  V30 6482 H  -0.6066 30.3247 -24.8045 0
M  V30 6483 H  -0.0147 29.9920 -21.9474 0
M  V30 6484 H  0.9137 32.2309 -22.6003 0
M  V30 6485 H  -0.3956 32.3506 -21.4613 0
M  V30 6486 H  -0.5049 32.7548 -24.2645 0
M  V30 6487 H  -1.8320 30.0543 -20.6174 0
M  V30 6488 H  -4.3941 29.4477 -22.0225 0
M  V30 6489 H  -4.7622 27.8219 -20.1960 0
M  V30 6490 H  -3.2141 26.0765 -20.8999 0
M  V30 6491 H  -3.6347 27.0365 -22.3160 0
M  V30 6492 H  -2.0760 27.2595 -21.5351 0
M  V30 6493 H  -2.1086 28.2333 -19.4073 0
M  V30 6494 H  -6.0146 30.7594 -21.5413 0
M  V30 6495 H  -6.0061 32.3904 -19.0453 0
M  V30 6496 H  -7.4934 32.8127 -21.6671 0
M  V30 6497 H  -6.0536 33.6632 -21.2539 0
M  V30 6498 H  -8.6198 33.7976 -19.5819 0
M  V30 6499 H  -7.3079 36.0641 -18.9153 0
M  V30 6500 H  -7.0154 34.5487 -18.0844 0
M  V30 6501 H  -5.9276 35.1114 -19.3617 0
M  V30 6502 H  -8.3029 36.2882 -20.8287 0
M  V30 6503 H  -8.0381 35.1331 -22.1149 0
M  V30 6504 H  -9.5167 35.0914 -21.1656 0
M  V30 6505 H  -7.2067 31.3832 -17.5042 0
M  V30 6506 H  -9.7421 30.0241 -18.2599 0
M  V30 6507 H  -8.2575 30.2149 -15.6423 0
M  V30 6508 H  -8.4627 28.8134 -16.6565 0
M  V30 6509 H  -10.9867 29.0064 -16.3257 0
M  V30 6510 H  -10.7107 30.2416 -15.1282 0
M  V30 6511 H  -11.1642 26.9026 -13.4531 0
M  V30 6512 H  -12.0658 27.7513 -14.6884 0
M  V30 6513 H  -11.3668 31.3783 -18.6384 0
M  V30 6514 H  -12.1616 33.6924 -18.6691 0
M  V30 6515 H  -11.6715 33.9074 -17.0188 0
M  V30 6516 H  -15.2812 31.3017 -15.6928 0
M  V30 6517 H  -15.6859 31.9670 -13.4411 0
M  V30 6518 H  -15.3728 33.6437 -13.7990 0
M  V30 6519 H  -13.3746 31.3991 -13.4907 0
M  V30 6520 H  -13.2984 32.9900 -12.7409 0
M  V30 6521 H  -12.6847 34.0002 -14.8729 0
M  V30 6522 H  -11.8736 32.4388 -14.9657 0
M  V30 6523 H  -18.7148 33.4615 -17.6223 0
M  V30 6524 H  -20.7736 33.0146 -16.4092 0
M  V30 6525 H  -20.0083 33.3420 -14.8608 0
M  V30 6526 H  -19.5073 30.9712 -16.6768 0
M  V30 6527 H  -19.9430 30.9078 -14.9698 0
M  V30 6528 H  -17.8063 31.7230 -14.2958 0
M  V30 6529 H  -17.3992 30.7436 -15.7256 0
M  V30 6530 H  -18.8606 35.5965 -18.1829 0
M  V30 6531 H  -19.5954 37.6477 -16.3395 0
M  V30 6532 H  -19.2390 37.8377 -18.0410 0
M  V30 6533 H  -16.3771 36.5177 -17.1222 0
M  V30 6534 H  -15.2490 38.7997 -15.6648 0
M  V30 6535 H  -13.2753 37.4228 -15.4226 0
M  V30 6536 H  -14.1462 35.5243 -14.1626 0
M  V30 6537 H  -15.0545 36.9659 -13.8187 0
M  V30 6538 H  -15.7514 35.7462 -14.8576 0
M  V30 6539 H  -14.5047 35.3443 -16.8481 0
M  V30 6540 H  -15.6354 38.2072 -18.9828 0
M  V30 6541 H  -13.8047 40.4581 -19.5296 0
M  V30 6542 H  -15.0880 39.8409 -20.5350 0
M  V30 6543 H  -14.4451 37.1543 -20.9403 0
M  V30 6544 H  -11.7636 36.6639 -21.7534 0
M  V30 6545 H  -12.9690 34.8599 -23.1878 0
M  V30 6546 H  -14.4524 35.4366 -22.4906 0
M  V30 6547 H  -13.4822 34.9039 -20.1944 0
M  V30 6548 H  -12.0166 34.3758 -20.9658 0
M  V30 6549 H  -13.2750 32.3766 -20.4982 0
M  V30 6550 H  -13.2504 32.5988 -22.2003 0
M  V30 6551 H  -15.4729 31.8601 -21.4651 0
M  V30 6552 H  -15.5614 33.4061 -22.2734 0
M  V30 6553 H  -15.5572 33.0014 -19.3690 0
M  V30 6554 H  -15.6694 34.4589 -20.1263 0
M  V30 6555 H  -16.8802 33.3503 -20.3005 0
M  V30 6556 H  -14.6359 37.7642 -23.6675 0
M  V30 6557 H  -13.1879 37.9248 -26.1380 0
M  V30 6558 H  -15.5780 37.4805 -26.1074 0
M  V30 6559 H  -15.2703 38.9702 -26.9692 0
M  V30 6560 H  -17.0135 39.0934 -25.4791 0
M  V30 6561 H  -13.8080 40.2106 -23.4956 0
M  V30 6562 H  -12.8206 42.5587 -24.7826 0
M  V30 6563 H  -12.8056 41.9132 -21.7918 0
M  V30 6564 H  -14.2594 42.3328 -22.6468 0
M  V30 6565 H  -11.1204 44.0995 -21.0991 0
M  V30 6566 H  -13.5198 47.0407 -22.9091 0
M  V30 6567 H  -11.2523 39.9679 -22.8453 0
M  V30 6568 H  -8.6319 41.0290 -22.8069 0
M  V30 6569 H  -9.6092 38.1417 -22.6883 0
M  V30 6570 H  -9.3928 39.2062 -21.3387 0
M  V30 6571 H  -7.5061 37.3930 -24.0635 0
M  V30 6572 H  -7.2710 39.4825 -20.2969 0
M  V30 6573 H  -5.1473 36.7472 -23.8297 0
M  V30 6574 H  -4.9544 38.8065 -20.0889 0
M  V30 6575 H  -3.8598 37.4366 -21.8444 0
M  V30 6576 H  -10.1815 38.6682 -25.0230 0
M  V30 6577 H  -8.0848 38.0787 -26.6994 0
M  V30 6578 H  -9.8987 37.3427 -28.2759 0
M  V30 6579 H  -10.2607 36.8707 -26.6217 0
M  V30 6580 H  -11.0779 38.2443 -27.3445 0
M  V30 6581 H  -10.5128 40.7090 -27.1666 0
M  V30 6582 H  -9.2300 41.6180 -29.6199 0
M  V30 6583 H  -11.5520 42.6794 -27.9587 0
M  V30 6584 H  -12.9000 41.8508 -29.9638 0
M  V30 6585 H  -12.3235 40.6706 -28.8426 0
M  V30 6586 H  -12.1904 44.0548 -29.9361 0
M  V30 6587 H  -10.7040 44.6052 -29.2149 0
M  V30 6588 H  -10.6531 43.6434 -30.6921 0
M  V30 6589 H  -12.1245 40.0861 -31.3363 0
M  V30 6590 H  -10.7631 41.1986 -31.3980 0
M  V30 6591 H  -10.7175 39.7862 -30.3429 0
M  V30 6592 H  -9.0754 42.5734 -26.2043 0
M  V30 6593 H  -7.8597 44.1854 -25.1644 0
M  V30 6594 H  -7.8371 45.1514 -26.6250 0
M  V30 6595 H  -6.6532 41.8211 -26.7535 0
M  V30 6596 H  -3.8735 42.2957 -26.3000 0
M  V30 6597 H  -5.4439 40.1256 -27.7285 0
M  V30 6598 H  -5.0500 40.1119 -26.0374 0
M  V30 6599 H  -3.0041 39.9625 -28.2838 0
M  V30 6600 H  -1.3434 39.5203 -26.7028 0
M  V30 6601 H  -2.2746 40.7439 -25.8598 0
M  V30 6602 H  -2.4761 39.0472 -25.4483 0
M  V30 6603 H  -3.0588 37.4488 -27.1455 0
M  V30 6604 H  -4.7615 37.8705 -27.1211 0
M  V30 6605 H  -3.8711 37.9011 -28.6333 0
M  V30 6606 H  -5.9875 42.4888 -29.1623 0
M  V30 6607 H  -3.9100 42.9356 -31.1218 0
M  V30 6608 H  -6.0117 43.8841 -32.3963 0
M  V30 6609 H  -5.9690 42.1744 -32.0498 0
M  V30 6610 H  -6.9382 43.2360 -31.0608 0
M  V30 6611 H  -5.7413 45.0510 -28.9036 0
M  V30 6612 H  -4.7506 47.5087 -30.1212 0
M  V30 6613 H  -5.7386 48.5164 -28.0024 0
M  V30 6614 H  -6.1222 46.9092 -27.4624 0
M  V30 6615 H  -7.5619 46.6029 -29.5192 0
M  V30 6616 H  -9.0510 48.8143 -28.4529 0
M  V30 6617 H  -9.1770 47.1038 -28.0609 0
M  V30 6618 H  -8.0996 48.1448 -27.1503 0
M  V30 6619 H  -8.1820 49.1417 -30.4468 0
M  V30 6620 H  -6.4503 49.2834 -30.2080 0
M  V30 6621 H  -7.0946 48.0255 -31.2458 0
M  V30 6622 H  -3.7494 45.3194 -27.4837 0
M  V30 6623 H  -1.7489 47.1105 -26.4847 0
M  V30 6624 H  -2.0031 44.1079 -26.0089 0
M  V30 6625 H  -2.8413 45.3447 -25.1053 0
M  V30 6626 H  -1.5171 47.1888 -23.9310 0
M  V30 6627 H  0.2991 43.5599 -25.3930 0
M  V30 6628 H  0.4941 47.6499 -22.5686 0
M  V30 6629 H  2.3026 43.9978 -23.9924 0
M  V30 6630 H  2.6107 47.0080 -22.0580 0
M  V30 6631 H  -1.7438 44.5169 -28.9349 0
M  V30 6632 H  1.0773 45.2208 -29.6548 0
M  V30 6633 H  1.2001 42.9556 -30.6109 0
M  V30 6634 H  -0.3925 42.5770 -30.0079 0
M  V30 6635 H  2.8378 44.0235 -28.6918 0
M  V30 6636 H  -0.4036 41.2601 -28.0516 0
M  V30 6637 H  3.9669 43.1859 -26.6575 0
M  V30 6638 H  0.7363 40.4006 -26.0241 0
M  V30 6639 H  2.5463 40.6280 -24.6065 0
M  V30 6640 H  -2.1439 46.7532 -32.6340 0
M  V30 6641 H  -1.9063 48.8668 -31.7796 0
M  V30 6642 H  -1.0423 49.1833 -33.2769 0
M  V30 6643 H  0.2420 49.6911 -30.9866 0
M  V30 6644 H  1.0949 48.7471 -32.2112 0
M  V30 6645 H  1.2404 47.2869 -30.3414 0
M  V30 6646 H  -0.3938 47.6969 -29.8011 0
M  V30 6647 H  1.2628 46.1697 -33.2623 0
M  V30 6648 H  0.9121 46.2760 -36.1831 0
M  V30 6649 H  2.9352 47.2484 -35.1407 0
M  V30 6650 H  3.3331 45.9234 -36.2107 0
M  V30 6651 H  4.4512 45.7910 -34.2492 0
M  V30 6652 H  0.5298 43.9378 -33.6480 0
M  V30 6653 H  1.4913 41.6404 -35.0169 0
M  V30 6654 H  0.3886 40.3917 -33.1821 0
M  V30 6655 H  1.3110 41.7531 -32.5668 0
M  V30 6656 H  -0.4493 41.8425 -32.6632 0
M  V30 6657 H  0.6051 40.4242 -36.5249 0
M  V30 6658 H  -2.1659 40.6187 -37.4280 0
M  V30 6659 H  0.2723 38.9411 -38.1302 0
M  V30 6660 H  -0.4523 40.2072 -39.0822 0
M  V30 6661 H  -2.4503 38.7636 -39.3873 0
M  V30 6662 H  -1.7188 37.4412 -38.5199 0
M  V30 6663 H  0.2583 37.7840 -40.3600 0
M  V30 6664 H  -0.9954 38.6422 -41.2133 0
M  V30 6665 H  -0.9252 35.7938 -40.7716 0
M  V30 6666 H  -4.3231 37.3844 -42.2964 0
M  V30 6667 H  -3.1480 38.4654 -41.6049 0
M  V30 6668 H  -3.9395 35.1434 -42.3606 0
M  V30 6669 H  -2.4624 34.4591 -41.7320 0
M  V30 6670 H  -3.8261 39.5805 -36.3976 0
M  V30 6671 H  -3.1453 37.2508 -34.6863 0
M  V30 6672 H  -5.2087 39.3609 -34.0065 0
M  V30 6673 H  -3.0045 40.3051 -33.7028 0
M  V30 6674 H  -2.4038 38.8689 -32.9438 0
M  V30 6675 H  -5.4125 38.1095 -31.8381 0
M  V30 6676 H  -5.8998 37.1132 -33.1718 0
M  V30 6677 H  -4.3149 36.8820 -32.4497 0
M  V30 6678 H  -2.9500 40.8607 -31.4066 0
M  V30 6679 H  -4.6565 40.4988 -31.6896 0
M  V30 6680 H  -3.6298 39.3202 -30.9053 0
M  V30 6681 H  -4.1181 35.4206 -35.2368 0
M  V30 6682 H  -6.6105 35.5154 -36.8558 0
M  V30 6683 H  -4.7674 33.1782 -36.2568 0
M  V30 6684 H  -6.1803 32.0324 -38.0790 0
M  V30 6685 H  -7.0121 32.2552 -36.5527 0
M  V30 6686 H  -7.3394 33.3338 -37.9055 0
M  V30 6687 H  -4.0752 33.2675 -38.5767 0
M  V30 6688 H  -5.1690 34.5918 -38.9302 0
M  V30 6689 H  -3.7933 34.8541 -37.8782 0
M  V30 6690 H  -8.4013 35.4974 -35.7067 0
M  V30 6691 H  -8.6187 34.3317 -33.0098 0
M  V30 6692 H  -10.9074 35.4130 -33.1744 0
M  V30 6693 H  -10.4814 36.0192 -34.7509 0
M  V30 6694 H  -9.6509 36.1217 -31.1282 0
M  V30 6695 H  -9.0194 37.9750 -34.9770 0
M  V30 6696 H  -8.5088 38.0079 -30.0332 0
M  V30 6697 H  -7.9213 39.9034 -33.8663 0
M  V30 6698 H  -7.4905 40.0489 -30.3053 0
M  V30 6699 H  -9.5414 32.3666 -32.6826 0
M  V30 6700 H  -11.3620 31.2406 -34.6625 0
M  V30 6701 H  -9.0262 30.4880 -35.3483 0
M  V30 6702 H  -7.8052 28.8090 -34.0324 0
M  V30 6703 H  -7.9475 30.2736 -33.0771 0
M  V30 6704 H  -8.9809 28.8871 -32.7309 0
M  V30 6705 H  -10.7440 29.1872 -35.8295 0
M  V30 6706 H  -12.3966 29.2821 -33.9870 0
M  V30 6707 H  -12.5191 28.3305 -31.3578 0
M  V30 6708 H  -14.7494 29.2527 -30.6830 0
M  V30 6709 H  -13.5659 30.5351 -30.7674 0
M  V30 6710 H  -14.7344 30.3471 -32.0670 0
M  V30 6711 H  -14.3359 26.7083 -31.2123 0
M  V30 6712 H  -14.3600 25.2644 -33.6511 0
M  V30 6713 H  -15.7090 23.5740 -32.3960 0
M  V30 6714 H  -15.8670 24.7025 -31.0545 0
M  V30 6715 H  -14.0210 22.7797 -30.7213 0
M  V30 6716 H  -17.0235 27.0167 -31.9722 0
M  V30 6717 H  -18.9118 26.3624 -34.1258 0
M  V30 6718 H  -19.5211 26.2147 -31.6694 0
M  V30 6719 H  -20.5804 27.2148 -32.6322 0
M  V30 6720 H  -19.9058 28.1092 -30.5820 0
M  V30 6721 H  -20.0457 27.9431 -35.3293 0
M  V30 6722 H  -18.6102 30.2683 -36.1809 0
M  V30 6723 H  -20.9069 30.7804 -37.2941 0
M  V30 6724 H  -21.4391 29.2460 -36.6649 0
M  V30 6725 H  -20.5626 26.9701 -38.1616 0
M  V30 6726 H  -18.1732 29.1481 -40.8551 0
M  V30 6727 H  -21.2100 29.8058 -33.7748 0
M  V30 6728 H  -21.8466 32.5023 -33.3131 0
M  V30 6729 H  -22.7794 31.6136 -31.1587 0
M  V30 6730 H  -23.2279 30.6117 -32.5307 0
M  V30 6731 H  -21.9531 30.0821 -31.4358 0
M  V30 6732 H  -19.2393 30.4908 -31.8665 0
M  V30 6733 H  -18.3996 32.4063 -29.9148 0
M  V30 6734 H  -16.4374 30.8727 -29.7201 0
M  V30 6735 H  -17.9508 29.9785 -29.7478 0
M  V30 6736 H  -16.9561 30.0290 -31.1865 0
M  V30 6737 H  -17.4126 31.7568 -33.3022 0
M  V30 6738 H  -15.2366 33.6552 -33.3054 0
M  V30 6739 H  -16.7908 32.3292 -35.5629 0
M  V30 6740 H  -14.9472 32.9734 -37.0869 0
M  V30 6741 H  -15.7453 34.4064 -36.4878 0
M  V30 6742 H  -14.1965 33.9230 -35.8075 0
M  V30 6743 H  -14.7696 30.9191 -35.7957 0
M  V30 6744 H  -14.0339 31.7006 -34.4040 0
M  V30 6745 H  -15.4834 30.7178 -34.2173 0
M  V30 6746 H  -18.7284 33.7966 -34.1853 0
M  V30 6747 H  -18.7215 36.4675 -35.1567 0
M  V30 6748 H  -21.1897 36.4470 -34.7426 0
M  V30 6749 H  -21.0298 34.9216 -33.8946 0
M  V30 6750 H  -19.0174 35.1713 -31.8318 0
M  V30 6751 H  -19.6859 37.6405 -30.5893 0
M  V30 6752 H  -18.9829 36.4741 -28.5057 0
M  V30 6753 H  -20.0024 35.4423 -29.4980 0
M  V30 6754 H  -18.2628 35.1791 -29.4558 0
M  V30 6755 H  -16.5290 36.2068 -31.4930 0
M  V30 6756 H  -14.9240 38.3183 -30.3352 0
M  V30 6757 H  -13.1695 37.3036 -31.9619 0
M  V30 6758 H  -14.3946 36.1647 -32.4236 0
M  V30 6759 H  -14.5642 35.4845 -29.9752 0
M  V30 6760 H  -13.2876 33.7574 -30.5736 0
M  V30 6761 H  -12.7337 34.6486 -31.9668 0
M  V30 6762 H  -11.8003 34.6888 -30.4867 0
M  V30 6763 H  -12.0440 36.2170 -28.9301 0
M  V30 6764 H  -12.6599 37.7059 -29.6243 0
M  V30 6765 H  -13.6059 36.8267 -28.4329 0
M  V30 6766 H  -16.5141 37.8009 -33.5068 0
M  V30 6767 H  -15.2559 39.9635 -34.8599 0
M  V30 6768 H  -17.1780 39.8566 -36.4373 0
M  V30 6769 H  -17.9915 38.6951 -35.4174 0
M  V30 6770 H  -16.1607 36.8773 -35.5562 0
M  V30 6771 H  -18.3289 39.7711 -32.9759 0
M  V30 6772 H  -19.1566 42.4429 -33.4426 0
M  V30 6773 H  -20.5618 41.9663 -31.2933 0
M  V30 6774 H  -19.7624 40.4332 -31.2302 0
M  V30 6775 H  -21.8131 39.9612 -32.2681 0
M  V30 6776 H  -20.6636 39.9155 -33.5748 0
M  V30 6777 H  -16.9821 41.0576 -30.9762 0
M  V30 6778 H  -16.8089 43.5214 -29.4610 0
M  V30 6779 H  -14.8771 41.1679 -29.4020 0
M  V30 6780 H  -16.4245 41.0745 -28.6615 0
M  V30 6781 H  -14.8088 43.4998 -27.9011 0
M  V30 6782 H  -14.2705 41.9666 -27.2972 0
M  V30 6783 H  -16.3418 41.5193 -26.1889 0
M  V30 6784 H  -17.1949 42.7770 -27.0330 0
M  V30 6785 H  -16.1633 44.5212 -25.7675 0
M  V30 6786 H  -14.8772 43.4753 -25.1771 0
M  V30 6787 H  -16.5194 42.2995 -23.9095 0
M  V30 6788 H  -16.4995 43.9026 -23.5254 0
M  V30 6789 H  -17.7142 43.2927 -24.4636 0
M  V30 6790 H  -14.8863 41.9581 -32.0694 0
M  V30 6791 H  -12.7802 43.8820 -32.1632 0
M  V30 6792 H  -12.3648 42.8180 -34.4224 0
M  V30 6793 H  -12.4771 41.6689 -33.0989 0
M  V30 6794 H  -13.8291 41.8628 -34.1999 0
M  V30 6795 H  -15.9925 43.7844 -33.6774 0
M  V30 6796 H  -15.6871 45.8454 -35.5658 0
M  V30 6797 H  -18.1076 44.9364 -33.9497 0
M  V30 6798 H  -17.5318 44.1313 -35.3763 0
M  V30 6799 H  -18.5892 46.9714 -35.3600 0
M  V30 6800 H  -18.7757 45.9421 -37.9780 0
M  V30 6801 H  -17.5954 47.1083 -37.4029 0
M  V30 6802 H  -17.1983 45.3982 -37.4444 0
M  V30 6803 H  -20.6934 46.1946 -35.9717 0
M  V30 6804 H  -20.0915 44.6267 -36.5163 0
M  V30 6805 H  -20.2143 44.9713 -34.8078 0
M  V30 6806 H  -16.2081 45.9640 -32.0624 0
M  V30 6807 H  -16.9162 48.7679 -31.9648 0
M  V30 6808 H  -16.2599 46.7033 -29.8243 0
M  V30 6809 H  -17.8450 47.1087 -30.4194 0
M  V30 6810 H  -17.5662 49.4436 -29.5070 0
M  V30 6811 H  -16.0049 48.9914 -28.8636 0
M  V30 6812 H  -17.0731 47.1960 -27.4975 0
M  V30 6813 H  -18.6429 47.6958 -28.0778 0
M  V30 6814 H  -18.4027 49.9218 -27.0301 0
M  V30 6815 H  -16.7393 49.5867 -26.5903 0
M  V30 6816 H  -17.4750 47.8627 -25.1553 0
M  V30 6817 H  -18.2074 49.2848 -24.7642 0
M  V30 6818 H  -19.0568 48.1183 -25.5645 0
M  V30 6819 H  -13.8540 46.9237 -31.6119 0
M  V30 6820 H  -12.4973 49.4047 -30.6196 0
M  V30 6821 H  -10.9025 47.7589 -29.5855 0
M  V30 6822 H  -11.9198 46.4582 -30.1284 0
M  V30 6823 H  -13.4633 45.6178 -28.5321 0
M  V30 6824 H  -12.1464 49.7169 -28.2261 0
M  V30 6825 H  -14.7517 45.8863 -26.4465 0
M  V30 6826 H  -13.4428 49.9795 -26.1430 0
M  V30 6827 H  -14.6880 48.9100 -24.5314 0
M  V30 6828 H  -12.1997 46.8039 -33.0738 0
M  V30 6829 H  -9.5029 47.7759 -33.7708 0
M  V30 6830 H  -9.3265 45.7329 -35.0807 0
M  V30 6831 H  -10.9963 45.3389 -34.8238 0
M  V30 6832 H  -10.6220 44.9910 -32.4510 0
M  V30 6833 H  -8.4247 43.2415 -33.2494 0
M  V30 6834 H  -10.0993 42.8456 -32.9003 0
M  V30 6835 H  -9.6289 43.3181 -34.5199 0
M  V30 6836 H  -8.3467 44.9944 -31.4348 0
M  V30 6837 H  -7.6924 45.7180 -32.9060 0
M  V30 6838 H  -8.8582 46.5906 -31.9071 0
M  V30 6839 H  -11.0559 49.8390 -37.4963 0
M  V30 6840 H  -9.1605 50.3163 -38.8526 0
M  V30 6841 H  -8.5777 48.6633 -38.7914 0
M  V30 6842 H  -8.3986 50.7543 -36.6314 0
M  V30 6843 H  -7.1011 49.7156 -37.2232 0
M  V30 6844 H  -8.0850 47.7778 -36.1182 0
M  V30 6845 H  -8.3944 49.0984 -34.9754 0
M  V30 6846 H  -12.6794 49.0613 -38.7282 0
M  V30 6847 H  -13.2125 46.3423 -39.1544 0
M  V30 6848 H  -14.8730 48.1530 -39.0020 0
M  V30 6849 H  -15.4136 45.9377 -40.0111 0
M  V30 6850 H  -15.2550 46.6244 -41.6051 0
M  V30 6851 H  -15.4491 49.6548 -40.8417 0
M  V30 6852 H  -13.7669 49.9023 -40.4211 0
M  V30 6853 H  -14.1901 48.9864 -41.8637 0
M  V30 6854 H  -17.6210 46.4800 -40.2402 0
M  V30 6855 H  -17.1250 48.0935 -39.7536 0
M  V30 6856 H  -17.3048 47.7045 -41.4623 0
M  V30 6857 H  -11.4985 48.6553 -41.2088 0
M  V30 6858 H  -11.4778 47.0840 -43.6024 0
M  V30 6859 H  -11.2248 49.4518 -43.8241 0
M  V30 6860 H  -9.7700 48.7116 -44.3980 0
M  V30 6861 H  -9.6817 46.8428 -40.6323 0
M  V30 6862 H  -7.5674 45.1783 -41.8846 0
M  V30 6863 H  -6.6280 45.2689 -39.4889 0
M  V30 6864 H  -7.9039 46.3653 -39.0867 0
M  V30 6865 H  -5.9235 47.6415 -39.5408 0
M  V30 6866 H  -7.0262 47.9512 -40.8486 0
M  V30 6867 H  -5.7323 46.2198 -42.2579 0
M  V30 6868 H  -4.6604 46.0022 -40.9118 0
M  V30 6869 H  -3.5744 47.4928 -42.4568 0
M  V30 6870 H  -4.0286 48.4640 -41.0701 0
M  V30 6871 H  -5.4923 48.2745 -43.6149 0
M  V30 6872 H  -5.9717 49.1816 -42.3332 0
M  V30 6873 H  -4.5664 49.5445 -43.1164 0
M  V30 6874 H  -10.6632 44.6089 -41.0181 0
M  V30 6875 H  -10.0818 42.0022 -39.6954 0
M  V30 6876 H  -12.4539 42.1043 -38.9904 0
M  V30 6877 H  -12.5962 43.7142 -39.6900 0
M  V30 6878 H  -10.8503 44.8670 -38.2213 0
M  V30 6879 H  -10.9751 40.1157 -40.4766 0
M  V30 6880 H  -12.7092 40.1701 -42.8221 0
M  V30 6881 H  -9.9810 38.7874 -42.8503 0
M  V30 6882 H  -10.4639 40.1497 -43.8471 0
M  V30 6883 H  -12.1291 38.7997 -44.7039 0
M  V30 6884 H  -14.2309 38.6404 -42.7430 0
M  V30 6885 H  -14.0455 36.5177 -40.6795 0
M  V30 6886 H  -16.4351 37.7025 -42.1709 0
M  V30 6887 H  -15.9615 38.0788 -40.5439 0
M  V30 6888 H  -17.0066 35.4402 -41.5569 0
M  V30 6889 H  -17.8517 36.5120 -40.4905 0
M  V30 6890 H  -15.7167 36.0396 -38.8715 0
M  V30 6891 H  -15.4774 34.7157 -39.9615 0
M  V30 6892 H  -17.8673 35.0233 -38.2713 0
M  V30 6893 H  -16.7952 31.3881 -39.6952 0
M  V30 6894 H  -15.9314 32.7667 -40.3189 0
M  V30 6895 H  -18.4713 31.6305 -38.1887 0
M  V30 6896 H  -18.8685 33.2061 -37.5397 0
M  V30 6897 H  -13.1058 34.6973 -41.5611 0
M  V30 6898 H  -13.4018 34.0596 -44.4018 0
M  V30 6899 H  -12.2565 32.3229 -42.2177 0
M  V30 6900 H  -10.0156 33.1286 -42.6779 0
M  V30 6901 H  -11.0474 34.3480 -42.0020 0
M  V30 6902 H  -10.9115 31.2598 -44.0102 0
M  V30 6903 H  -12.6267 31.0614 -44.2907 0
M  V30 6904 H  -11.7238 32.2585 -45.2107 0
M  V30 6905 H  -9.6527 35.3317 -43.7688 0
M  V30 6906 H  -10.2557 34.1842 -44.9550 0
M  V30 6907 H  -11.3310 35.4068 -44.2632 0
M  V30 6908 H  -15.0150 32.8562 -45.2065 0
M  V30 6909 H  -16.7984 31.3104 -43.3965 0
M  V30 6910 H  -17.4097 32.9995 -45.8603 0
M  V30 6911 H  -17.1003 34.2629 -43.7336 0
M  V30 6912 H  -18.2765 33.2571 -42.9538 0
M  V30 6913 H  -19.8167 32.3769 -45.5451 0
M  V30 6914 H  -18.8721 30.9841 -45.9778 0
M  V30 6915 H  -19.3553 31.2240 -44.3007 0
M  V30 6916 H  -18.9698 35.6357 -43.8545 0
M  V30 6917 H  -19.0707 34.8522 -45.4286 0
M  V30 6918 H  -20.0890 34.3044 -44.1005 0
M  V30 6919 H  -15.3886 28.0764 -46.3374 0
M  V30 6920 H  -15.4327 26.6310 -44.5303 0
M  V30 6921 H  -16.8352 25.9603 -45.3463 0
M  V30 6922 H  -17.1212 26.7872 -42.8014 0
M  V30 6923 H  -18.3437 27.2490 -43.9831 0
M  V30 6924 H  -17.7903 29.3849 -43.2514 0
M  V30 6925 H  -16.1022 28.9667 -42.9103 0
M  V30 6926 H  -16.0732 27.8528 -48.3435 0
M  V30 6927 H  -18.1181 28.9487 -49.6357 0
M  V30 6928 H  -18.9870 26.0542 -48.9213 0
M  V30 6929 H  -17.5435 27.4426 -51.5394 0
M  V30 6930 H  -16.1038 27.9854 -50.6999 0
M  V30 6931 H  -16.6989 26.3525 -50.4433 0
M  V30 6932 H  -24.4289 27.1416 -43.6259 0
M  V30 6933 H  -25.4486 28.2861 -44.1275 0
M  V30 6934 H  -25.4281 28.4492 -41.8020 0
M  V30 6935 H  -22.3756 28.6838 -41.9868 0
M  V30 6936 H  -22.4814 28.5920 -39.4569 0
M  V30 6937 H  -23.1249 30.0724 -40.1255 0
M  V30 6938 H  -24.2181 28.8137 -39.5558 0
M  V30 6939 H  -22.2839 26.5553 -40.7230 0
M  V30 6940 H  -24.0323 26.3887 -40.8578 0
M  V30 6941 H  -23.0194 26.3315 -42.2981 0
M  V30 6942 H  -26.2115 30.4539 -41.4089 0
M  V30 6943 H  -25.0544 32.8721 -42.6392 0
M  V30 6944 H  -26.9847 33.9833 -41.4970 0
M  V30 6945 H  -27.5084 32.4295 -40.8934 0
M  V30 6946 H  -27.7818 31.5802 -43.2336 0
M  V30 6947 H  -27.1638 33.0850 -43.8663 0
M  V30 6948 H  -23.7413 34.2228 -41.6169 0
M  V30 6949 H  -23.3287 34.1828 -38.7327 0
M  V30 6950 H  -21.9321 32.2583 -39.6362 0
M  V30 6951 H  -21.0292 33.4762 -38.8014 0
M  V30 6952 H  -20.1636 34.7653 -40.8506 0
M  V30 6953 H  -20.9748 35.6534 -38.6339 0
M  V30 6954 H  -21.9359 38.2452 -38.9229 0
M  V30 6955 H  -19.0406 37.2961 -38.6313 0
M  V30 6956 H  -20.2017 37.4084 -37.3403 0
M  V30 6957 H  -20.9001 39.4476 -36.3102 0
M  V30 6958 H  -18.1692 39.4918 -39.6603 0
M  V30 6959 H  -20.2950 41.7864 -35.8198 0
M  V30 6960 H  -17.6479 41.8461 -39.1455 0
M  V30 6961 H  -18.6445 42.9578 -37.2099 0
M  V30 6962 H  -21.8664 39.8092 -40.4437 0
M  V30 6963 H  -20.6034 39.2013 -43.0638 0
M  V30 6964 H  -22.8087 38.5483 -43.3603 0
M  V30 6965 H  -22.7322 40.1088 -44.1021 0
M  V30 6966 H  -20.1567 41.3396 -40.6639 0
M  V30 6967 H  -20.3189 43.7753 -42.3303 0
M  V30 6968 H  -20.0576 45.0032 -40.3487 0
M  V30 6969 H  -19.4951 43.6534 -39.4204 0
M  V30 6970 H  -21.6304 42.6571 -39.2576 0
M  V30 6971 H  -22.2564 43.4774 -40.6631 0
M  V30 6972 H  -22.4270 45.5801 -39.5149 0
M  V30 6973 H  -21.5298 45.0037 -38.1390 0
M  V30 6974 H  -23.3750 43.3609 -37.6225 0
M  V30 6975 H  -24.2686 43.9276 -39.0231 0
M  V30 6976 H  -24.3697 46.0925 -38.0104 0
M  V30 6977 H  -25.0160 44.9438 -37.0181 0
M  V30 6978 H  -23.5197 45.5568 -36.7001 0
M  V30 6979 H  -17.8916 41.4504 -41.6243 0
M  V30 6980 H  -15.6703 43.3346 -42.3106 0
M  V30 6981 H  -14.2375 41.3964 -41.8035 0
M  V30 6982 H  -15.6191 40.3662 -41.5455 0
M  V30 6983 H  -15.4780 43.8403 -40.1742 0
M  V30 6984 H  -14.7024 39.6761 -39.3682 0
M  V30 6985 H  -15.1994 44.3404 -37.7838 0
M  V30 6986 H  -14.4404 40.2162 -36.9878 0
M  V30 6987 H  -14.7087 42.5351 -36.1941 0
M  V30 6988 H  -14.2903 42.7686 -44.1508 0
M  V30 6989 H  -15.7267 41.7971 -46.4382 0
M  V30 6990 H  -13.9011 43.4976 -46.5669 0
M  V30 6991 H  -13.8014 42.1769 -47.6855 0
M  V30 6992 H  -12.0385 41.0697 -46.2259 0
M  V30 6993 H  -12.0216 42.4971 -45.2385 0
M  V30 6994 H  -11.4935 42.3956 -48.2585 0
M  V30 6995 H  -10.2423 42.2834 -47.0809 0
M  V30 6996 H  -12.0679 44.7268 -47.4496 0
M  V30 6997 H  -10.4498 44.5646 -48.0963 0
M  V30 6998 H  -9.6024 44.3811 -45.8894 0
M  V30 6999 H  -10.4280 45.7908 -46.0825 0
M  V30 7000 H  -11.1077 44.5436 -45.2438 0
M  V30 7001 H  -15.9001 39.7503 -47.2866 0
M  V30 7002 H  -15.1099 37.6414 -45.4593 0
M  V30 7003 H  -16.8968 37.7309 -47.9009 0
M  V30 7004 H  -17.6860 35.4226 -47.2839 0
M  V30 7005 H  -16.0752 35.4448 -47.9463 0
M  V30 7006 H  -16.3043 35.2648 -46.2040 0
M  V30 7007 H  -18.7039 37.3488 -46.2279 0
M  V30 7008 H  -17.5129 37.3752 -44.9311 0
M  V30 7009 H  -17.8195 38.8231 -45.8829 0
M  V30 7010 H  -13.6820 36.0536 -45.7377 0
M  V30 7011 H  -12.0768 34.7783 -46.4286 0
M  V30 7012 H  -12.1362 33.9235 -48.8394 0
M  V30 7013 H  -13.3608 35.1110 -49.1944 0
M  V30 7014 H  -15.4402 32.2445 -48.5493 0
M  V30 7015 H  -14.7085 33.2273 -49.7933 0
M  V30 7016 H  -11.3419 37.6574 -46.3311 0
M  V30 7017 H  -9.0299 37.7100 -48.2023 0
M  V30 7018 H  -9.9488 39.8222 -46.1988 0
M  V30 7019 H  -10.3556 39.7995 -47.9045 0
M  V30 7020 H  -8.3734 40.9970 -47.1165 0
M  V30 7021 H  -7.9665 35.8763 -47.3812 0
M  V30 7022 H  -7.3916 35.2967 -44.7170 0
M  V30 7023 H  -5.8839 34.6073 -47.2901 0
M  V30 7024 H  -5.0999 32.5301 -46.0642 0
M  V30 7025 H  -4.3190 33.9894 -45.5027 0
M  V30 7026 H  -5.6103 33.2697 -44.5485 0
M  V30 7027 H  -7.7703 33.1238 -45.8120 0
M  V30 7028 H  -5.7423 37.6123 -46.8275 0
M  V30 7029 H  -3.3035 37.7106 -45.2306 0
M  V30 7030 H  -2.7190 39.4988 -46.9437 0
M  V30 7031 H  -4.3106 39.3166 -47.6245 0
M  V30 7032 H  -3.7926 36.9366 -48.1719 0
M  V30 7033 H  -3.0884 37.6273 -50.1831 0
M  V30 7034 H  -2.8825 39.2362 -49.5179 0
M  V30 7035 H  -1.5205 38.1412 -49.5814 0
M  V30 7036 H  -1.0270 36.6192 -48.0423 0
M  V30 7037 H  -1.3690 37.4246 -46.5238 0
M  V30 7038 H  -2.1857 35.9219 -46.9294 0
M  V30 7039 H  -6.3554 39.1493 -44.7533 0
M  V30 7040 H  -5.5243 41.7721 -43.9989 0
M  V30 7041 H  -8.0033 40.5324 -42.7706 0
M  V30 7042 H  -7.9614 40.4760 -44.4976 0
M  V30 7043 H  -7.6273 42.9869 -42.8117 0
M  V30 7044 H  -9.1060 42.5215 -43.6213 0
M  V30 7045 H  -5.0899 42.6755 -41.9309 0
M  V30 7046 H  -3.4281 41.2159 -40.3524 0
M  V30 7047 H  -4.9770 43.7124 -39.5670 0
M  V30 7048 H  -3.4888 43.6702 -40.4761 0
M  V30 7049 H  -2.2858 42.6769 -38.5251 0
M  V30 7050 H  -3.7567 42.7007 -37.5736 0
M  V30 7051 H  -2.0310 45.5868 -36.3176 0
M  V30 7052 H  -2.0293 43.8445 -36.2144 0
M  V30 7053 H  -6.9069 41.7223 -39.6374 0
M  V30 7054 H  -6.7063 39.7340 -37.4298 0
M  V30 7055 H  -8.6981 40.7591 -36.5060 0
M  V30 7056 H  -8.8312 41.8571 -37.8571 0
M  V30 7057 H  -6.1773 40.8002 -35.3948 0
M  V30 7058 H  -8.0977 44.0591 -37.4703 0
M  V30 7059 H  -4.6645 42.4039 -34.2663 0
M  V30 7060 H  -6.5989 45.6657 -36.3267 0
M  V30 7061 H  -4.0784 44.6234 -33.9941 0
M  V30 7062 H  -7.3813 37.7794 -37.9501 0
M  V30 7063 H  -9.3656 37.3971 -40.1677 0
M  V30 7064 H  -7.0341 35.6852 -39.2262 0
M  V30 7065 H  -7.5846 34.0662 -41.0204 0
M  V30 7066 H  -8.8772 34.1211 -39.8427 0
M  V30 7067 H  -9.0407 34.9789 -41.3773 0
M  V30 7068 H  -6.2260 35.9603 -41.5962 0
M  V30 7069 H  -7.5060 37.1436 -41.8645 0
M  V30 7070 H  -6.2471 37.4367 -40.6577 0
M  V30 7071 H  -11.2647 36.6304 -39.4483 0
M  V30 7072 H  -11.4520 35.2242 -36.8074 0
M  V30 7073 H  -13.7741 36.0764 -36.8352 0
M  V30 7074 H  -13.4975 36.8847 -38.3552 0
M  V30 7075 H  -11.9028 38.8511 -38.4867 0
M  V30 7076 H  -12.9903 37.0495 -34.7155 0
M  V30 7077 H  -10.9772 40.7710 -37.2875 0
M  V30 7078 H  -12.0609 39.0080 -33.5469 0
M  V30 7079 H  -11.0261 40.8447 -34.8275 0
M  V30 7080 H  -11.8134 33.0385 -37.0583 0
M  V30 7081 H  -13.3898 32.0141 -39.3092 0
M  V30 7082 H  -10.3632 31.5439 -39.1260 0
M  V30 7083 H  -11.1345 32.5189 -40.3304 0
M  V30 7084 H  -11.5243 29.3052 -39.7174 0
M  V30 7085 H  -14.2972 30.0444 -38.8254 0
M  V30 7086 H  -13.8176 28.8343 -36.2772 0
M  V30 7087 H  -15.3190 27.0167 -37.1043 0
M  V30 7088 H  -17.3582 28.2997 -37.3544 0
M  V30 7089 H  -16.3379 29.0848 -36.1633 0
M  V30 7090 H  -16.4687 29.7632 -37.7829 0
M  V30 7091 H  -14.6839 27.0368 -39.2744 0
M  V30 7092 H  -12.9708 26.7161 -35.8415 0
M  V30 7093 H  -10.4484 26.3297 -36.7826 0
M  V30 7094 H  -12.2786 24.3841 -35.3592 0
M  V30 7095 H  -10.1715 23.1603 -34.6400 0
M  V30 7096 H  -10.6147 22.8763 -36.3023 0
M  V30 7097 H  -9.3029 23.9920 -35.9162 0
M  V30 7098 H  -11.0053 25.0258 -33.3594 0
M  V30 7099 H  -9.9848 26.1001 -34.3117 0
M  V30 7100 H  -11.6911 26.4516 -34.1094 0
M  V30 7101 H  -13.3217 24.4269 -37.8642 0
M  V30 7102 H  -11.8266 22.7333 -39.5807 0
M  V30 7103 H  -13.8364 21.8964 -38.6921 0
M  V30 7104 H  -14.0555 21.9581 -40.4108 0
M  V30 7105 H  -16.3564 25.0018 -39.7293 0
M  V30 7106 H  -14.7675 24.9315 -40.4471 0
M  V30 7107 H  -12.5150 26.0055 -40.0611 0
M  V30 7108 H  -12.5209 25.7886 -43.0427 0
M  V30 7109 H  -13.6399 28.0037 -42.9766 0
M  V30 7110 H  -14.5690 26.8198 -42.0735 0
M  V30 7111 H  -13.5891 28.0030 -41.2173 0
M  V30 7112 H  -10.3747 26.3505 -40.4979 0
M  V30 7113 H  -9.1753 28.7595 -41.0282 0
M  V30 7114 H  -7.0456 27.4962 -40.0680 0
M  V30 7115 H  -8.1293 26.1473 -39.9041 0
M  V30 7116 H  -9.6094 27.6000 -38.4762 0
M  V30 7117 H  -7.9071 27.6472 -36.5114 0
M  V30 7118 H  -8.2219 26.0956 -37.2761 0
M  V30 7119 H  -6.7528 26.9719 -37.6614 0
M  V30 7120 H  -9.3255 29.8064 -38.2429 0
M  V30 7121 H  -7.6851 29.6203 -37.6734 0
M  V30 7122 H  -7.9837 29.7878 -39.3847 0
M  V30 7123 H  -6.9158 27.8104 -44.9093 0
M  V30 7124 H  -7.4725 29.9990 -45.5195 0
M  V30 7125 H  -5.7472 30.2455 -45.2974 0
M  V30 7126 H  -7.4406 31.8220 -43.9207 0
M  V30 7127 H  -6.0755 31.0986 -43.0704 0
M  V30 7128 H  -7.7509 30.2704 -41.6980 0
M  V30 7129 H  -8.9576 30.2193 -42.9941 0
M  V30 7130 H  -4.6614 27.4881 -45.4797 0
M  V30 7131 H  -2.9370 26.9568 -43.2048 0
M  V30 7132 H  -1.7594 26.6652 -45.9087 0
M  V30 7133 H  -3.2701 25.8244 -45.7574 0
M  V30 7134 H  -2.4061 24.7433 -43.6245 0
M  V30 7135 H  -0.8599 25.5088 -43.8933 0
M  V30 7136 H  -1.9013 28.6457 -42.2789 0
M  V30 7137 H  -0.4455 30.6316 -43.8035 0
M  V30 7138 H  -2.8685 31.4146 -43.9967 0
M  V30 7139 H  -4.0401 32.3799 -42.0909 0
M  V30 7140 H  -3.7090 30.6980 -41.7221 0
M  V30 7141 H  -2.7388 31.9681 -40.9841 0
M  V30 7142 H  -1.2709 32.9070 -44.1275 0
M  V30 7143 H  0.0592 32.5408 -42.0494 0
M  V30 7144 H  0.9332 31.2592 -39.5054 0
M  V30 7145 H  3.0215 32.5043 -39.6584 0
M  V30 7146 H  4.1948 31.4095 -41.4608 0
M  V30 7147 H  2.9425 30.2932 -40.9219 0
M  V30 7148 H  2.7233 31.2062 -42.4023 0
M  V30 7149 H  2.3656 34.3347 -40.7263 0
M  V30 7150 H  1.4691 32.9820 -37.8322 0
M  V30 7151 H  0.2089 35.5890 -38.1436 0
M  V30 7152 H  -1.4611 35.2899 -36.3779 0
M  V30 7153 H  -1.7163 33.9861 -37.5267 0
M  V30 7154 H  -0.8828 33.6650 -36.0149 0
M  V30 7155 H  0.5129 36.9135 -36.1462 0
M  V30 7156 H  3.0302 36.2488 -34.7479 0
M  V30 7157 H  2.9350 38.5434 -33.8859 0
M  V30 7158 H  1.3519 38.7827 -34.6089 0
M  V30 7159 H  -0.4758 36.4398 -34.1686 0
M  V30 7160 H  -0.0098 34.8103 -31.7768 0
M  V30 7161 H  -2.0459 37.0825 -31.6694 0
M  V30 7162 H  0.2175 38.1078 -31.6272 0
M  V30 7163 H  0.6806 37.0599 -30.3142 0
M  V30 7164 H  -2.1127 36.4677 -29.2055 0
M  V30 7165 H  -2.6836 35.1988 -30.2454 0
M  V30 7166 H  -1.0635 35.1109 -29.5607 0
M  V30 7167 H  -0.2624 39.6140 -30.0070 0
M  V30 7168 H  -1.7676 38.7323 -29.8294 0
M  V30 7169 H  -0.4190 38.3843 -28.7564 0
M  V30 7170 H  -1.5642 33.1938 -31.6026 0
M  V30 7171 H  -3.9831 33.3447 -33.3596 0
M  V30 7172 H  -2.3461 30.9827 -32.3950 0
M  V30 7173 H  -4.1011 29.4372 -33.2900 0
M  V30 7174 H  -4.6640 30.2768 -31.8725 0
M  V30 7175 H  -5.2087 30.7963 -33.4681 0
M  V30 7176 H  -2.2417 30.3635 -34.7288 0
M  V30 7177 H  -3.4013 31.6143 -35.1808 0
M  V30 7178 H  -1.8101 32.0669 -34.6115 0
M  V30 7179 H  -5.8598 33.5485 -32.2086 0
M  V30 7180 H  -5.8048 32.9976 -29.2606 0
M  V30 7181 H  -7.4585 34.9803 -30.8573 0
M  V30 7182 H  -8.3740 35.6634 -28.5784 0
M  V30 7183 H  -8.9643 34.1138 -29.1370 0
M  V30 7184 H  -7.6906 34.1823 -27.9208 0
M  V30 7185 H  -6.3649 36.7017 -29.4537 0
M  V30 7186 H  -5.3847 35.4657 -28.6742 0
M  V30 7187 H  -5.1782 35.8106 -30.3861 0
M  V30 7188 H  -6.8078 31.0967 -28.8494 0
M  V30 7189 H  -9.0292 30.1691 -30.6136 0
M  V30 7190 H  -7.2912 28.5327 -28.7497 0
M  V30 7191 H  -6.8926 28.7998 -30.4129 0
M  V30 7192 H  -6.7482 26.3133 -30.4777 0
M  V30 7193 H  -10.5416 28.2911 -29.8518 0
M  V30 7194 H  -7.9601 24.2498 -31.0348 0
M  V30 7195 H  -11.6899 26.2218 -30.3929 0
M  V30 7196 H  -10.4183 24.1983 -30.9907 0
M  V30 7197 H  -10.8508 31.0201 -29.6820 0
M  V30 7198 H  -11.1201 31.2299 -26.7778 0
M  V30 7199 H  -13.0945 32.1017 -28.9311 0
M  V30 7200 H  -11.7405 33.0755 -28.4752 0
M  V30 7201 H  -12.9928 30.5449 -25.6981 0
M  V30 7202 H  -14.2575 29.0262 -24.7755 0
M  V30 7203 H  -15.3966 28.6508 -27.5825 0
M  V30 7204 H  -15.6975 30.0273 -26.5619 0
M  V30 7205 H  -16.6142 28.3518 -24.7970 0
M  V30 7206 H  -16.5285 27.1354 -26.0407 0
M  V30 7207 H  -11.8984 28.0572 -24.8018 0
M  V30 7208 H  -11.3650 25.8705 -26.4126 0
M  V30 7209 H  -9.7374 27.3941 -25.1279 0
M  V30 7210 H  -9.0631 24.4255 -25.1777 0
M  V30 7211 H  -7.9372 25.7199 -25.0252 0
M  V30 7212 H  -8.8569 26.7348 -22.9825 0
M  V30 7213 H  -10.5834 26.9630 -22.7845 0
M  V30 7214 H  -9.9124 25.3402 -22.8754 0
M  V30 7215 H  -7.8035 25.3082 -27.3073 0
M  V30 7216 H  -9.5109 24.9652 -27.4796 0
M  V30 7217 H  -8.9625 26.6308 -27.2944 0
M  V30 7218 H  -13.3001 25.7512 -23.4917 0
M  V30 7219 H  -12.8482 22.9776 -22.9046 0
M  V30 7220 H  -13.7990 24.5292 -21.2869 0
M  V30 7221 H  -14.8353 23.1457 -21.5264 0
M  V30 7222 H  -16.2958 24.3344 -22.5593 0
M  V30 7223 H  -14.9656 24.6679 -25.2051 0
M  V30 7224 H  -16.3671 22.3121 -26.1085 0
M  V30 7225 H  -17.1411 23.8759 -27.9313 0
M  V30 7226 H  -16.0826 25.0932 -27.3197 0
M  V30 7227 H  -18.3200 25.5158 -26.5457 0
M  V30 7228 H  -17.3509 25.1166 -25.1507 0
M  V30 7229 H  -20.6869 22.5165 -27.0358 0
M  V30 7230 H  -20.1208 24.0736 -27.6528 0
M  V30 7231 H  -19.1181 22.6229 -27.8424 0
M  V30 7232 H  -13.1215 23.1486 -26.5684 0
M  V30 7233 H  -12.9174 22.0491 -29.2831 0
M  V30 7234 H  -10.5308 22.4031 -29.0110 0
M  V30 7235 H  -11.3563 23.8425 -28.4321 0
M  V30 7236 H  -10.6900 22.6777 -27.2851 0
M  V30 7237 H  -12.0022 20.1189 -29.7989 0
M  V30 7238 H  -11.5631 18.0520 -27.6783 0
M  V30 7239 H  -11.9344 16.3983 -29.4188 0
M  V30 7240 H  -14.3060 16.6618 -29.9690 0
M  V30 7241 H  -14.0207 17.2211 -28.3259 0
M  V30 7242 H  -14.2483 18.3866 -29.6261 0
M  V30 7243 H  -12.5259 18.4247 -31.2749 0
M  V30 7244 H  -9.7232 16.5233 -28.3934 0
M  V30 7245 H  -7.3608 17.9603 -28.9472 0
M  V30 7246 H  -6.4509 15.4908 -29.2689 0
M  V30 7247 H  -8.0555 14.9820 -28.8285 0
M  V30 7248 H  -6.3545 14.8297 -25.6412 0
M  V30 7249 H  -6.6725 13.9061 -27.0838 0
M  V30 7250 H  -9.7105 16.4949 -31.1290 0
M  V30 7251 H  -8.0494 16.3393 -33.4532 0
M  V30 7252 H  -11.0754 16.7545 -33.3192 0
M  V30 7253 H  -10.3081 15.2091 -33.1122 0
M  V30 7254 H  -10.8183 17.9812 -35.5602 0
M  V30 7255 H  -9.4896 13.9187 -34.9494 0
M  V30 7256 H  -10.6368 17.6681 -38.0107 0
M  V30 7257 H  -9.2835 13.6166 -37.3968 0
M  V30 7258 H  -9.3556 14.6659 -39.4475 0
M  V30 7259 H  -10.2081 18.8609 -32.1228 0
M  V30 7260 H  -9.7928 20.7857 -34.1607 0
M  V30 7261 H  -10.9744 22.3458 -32.6664 0
M  V30 7262 H  -10.6984 21.3001 -31.2934 0
M  V30 7263 H  -8.1648 20.2740 -31.0060 0
M  V30 7264 H  -6.4375 22.5240 -31.0968 0
M  V30 7265 H  -4.9936 20.9864 -29.6219 0
M  V30 7266 H  -6.1747 19.7479 -29.8245 0
M  V30 7267 H  -7.8257 21.1219 -28.6084 0
M  V30 7268 H  -6.6813 21.1277 -26.3884 0
M  V30 7269 H  -6.2849 19.6746 -27.3085 0
M  V30 7270 H  -5.1243 20.9911 -27.1878 0
M  V30 7271 H  -6.4918 23.2635 -27.4329 0
M  V30 7272 H  -5.9118 23.3568 -29.0788 0
M  V30 7273 H  -7.6440 23.3794 -28.7460 0
M  V30 7274 H  -6.0336 19.2161 -32.3945 0
M  V30 7275 H  -3.3730 19.5134 -33.3350 0
M  V30 7276 H  -5.6469 17.6013 -34.0301 0
M  V30 7277 H  -4.3322 17.3314 -32.9099 0
M  V30 7278 H  -2.9038 17.3359 -34.6649 0
M  V30 7279 H  -6.5472 19.9760 -34.9862 0
M  V30 7280 H  -5.5211 20.5627 -37.5388 0
M  V30 7281 H  -8.1281 21.2169 -36.1503 0
M  V30 7282 H  -9.1156 21.9511 -38.3323 0
M  V30 7283 H  -7.9578 23.1100 -37.7309 0
M  V30 7284 H  -7.5058 22.0127 -39.0356 0
M  V30 7285 H  -9.0661 19.5718 -37.7034 0
M  V30 7286 H  -7.5266 19.4201 -38.5432 0
M  V30 7287 H  -7.6855 18.8514 -36.8930 0
M  V30 7288 H  -6.2288 22.8262 -34.7833 0
M  V30 7289 H  -5.6354 25.1922 -36.1800 0
M  V30 7290 H  -5.5297 24.4813 -33.2355 0
M  V30 7291 H  -5.4009 26.9388 -32.6936 0
M  V30 7292 H  -3.8965 26.3112 -33.3190 0
M  V30 7293 H  -4.9567 27.2604 -34.3636 0
M  V30 7294 H  -7.5400 25.9645 -33.1537 0
M  V30 7295 H  -7.4143 26.2267 -34.8708 0
M  V30 7296 H  -7.7719 24.6233 -34.2587 0
M  V30 7297 H  -3.3519 22.9946 -34.4420 0
M  V30 7298 H  -1.0993 24.7302 -34.9335 0
M  V30 7299 H  0.2032 22.6813 -34.1070 0
M  V30 7300 H  -1.3186 21.8313 -33.9766 0
M  V30 7301 H  -1.2778 22.9522 -30.5913 0
M  V30 7302 H  -1.1619 21.6012 -31.6911 0
M  V30 7303 H  -2.7083 22.2675 -36.8709 0
M  V30 7304 H  -0.4591 21.8240 -38.6691 0
M  V30 7305 H  -2.1219 20.5374 -39.9826 0
M  V30 7306 H  -2.1678 20.0586 -38.2947 0
M  V30 7307 H  -3.4220 21.1060 -38.9428 0
M  V30 7308 H  -3.4500 23.8296 -38.6781 0
M  V30 7309 H  -2.8999 24.8890 -41.3391 0
M  V30 7310 H  -4.9560 26.1891 -40.9797 0
M  V30 7311 H  -5.0075 25.7376 -39.3033 0
M  V30 7312 H  -6.6195 24.5402 -40.6913 0
M  V30 7313 H  -5.6318 23.4215 -39.8528 0
M  V30 7314 H  -5.7292 22.4378 -41.9786 0
M  V30 7315 H  -4.2207 23.2959 -42.0656 0
M  V30 7316 H  -6.3002 25.0255 -42.9226 0
M  V30 7317 H  -4.5201 22.7681 -45.7996 0
M  V30 7318 H  -4.2646 22.3437 -44.1317 0
M  V30 7319 H  -5.8492 24.5924 -46.3394 0
M  V30 7320 H  -6.6139 25.5250 -45.0784 0
M  V30 7321 H  -2.4733 26.0673 -37.9683 0
M  V30 7322 H  -1.5017 28.6752 -39.0526 0
M  V30 7323 H  -2.1750 29.6460 -36.9761 0
M  V30 7324 H  -2.5487 28.1063 -36.2665 0
M  V30 7325 H  -4.4329 27.7987 -37.8330 0
M  V30 7326 H  -5.8229 28.8506 -36.4057 0
M  V30 7327 H  -4.3792 29.3707 -35.5826 0
M  V30 7328 H  -5.1523 30.4456 -36.7209 0
M  V30 7329 H  -5.0419 30.2492 -38.9880 0
M  V30 7330 H  -3.3028 30.1759 -39.2128 0
M  V30 7331 H  -4.3330 28.8880 -39.8233 0
M  V30 7332 H  0.5922 29.0949 -38.8757 0
M  V30 7333 H  2.2546 27.7073 -36.8208 0
M  V30 7334 H  2.1179 29.1003 -35.0378 0
M  V30 7335 H  2.3361 32.0224 -35.5766 0
M  V30 7336 H  0.8039 32.3681 -33.7788 0
M  V30 7337 H  0.1384 31.0572 -34.7461 0
M  V30 7338 H  0.9374 30.6995 -33.2216 0
M  V30 7339 H  3.4585 33.3720 -34.1803 0
M  V30 7340 H  5.7411 32.3482 -32.7490 0
M  V30 7341 H  5.9178 34.7020 -31.9069 0
M  V30 7342 H  4.3843 35.0786 -32.6219 0
M  V30 7343 H  5.3783 34.5603 -34.9051 0
M  V30 7344 H  6.9214 34.3196 -34.1166 0
M  V30 7345 H  6.7282 36.6794 -33.1766 0
M  V30 7346 H  5.2604 36.8876 -34.0863 0
M  V30 7347 H  6.6144 36.3788 -36.2251 0
M  V30 7348 H  8.0652 36.4250 -35.2374 0
M  V30 7349 H  6.1348 38.5931 -35.6408 0
M  V30 7350 H  7.4400 38.7052 -34.6404 0
M  V30 7351 H  7.6551 38.5127 -36.2688 0
M  V30 7352 H  2.4008 33.2224 -31.8762 0
M  V30 7353 H  2.7705 32.1979 -29.1303 0
M  V30 7354 H  1.4631 34.1505 -28.2706 0
M  V30 7355 H  1.5105 34.8803 -29.8577 0
M  V30 7356 H  3.8725 36.3931 -30.3994 0
M  V30 7357 H  3.9770 33.6231 -27.1753 0
M  V30 7358 H  6.1617 34.8902 -27.2277 0
M  V30 7359 H  0.9630 31.1441 -28.3159 0
M  V30 7360 H  -1.5565 31.1449 -29.9190 0
M  V30 7361 H  -1.8311 28.7586 -29.2888 0
M  V30 7362 H  -0.2522 28.7353 -28.5789 0
M  V30 7363 H  -2.1556 28.6147 -31.7047 0
M  V30 7364 H  1.8014 28.7675 -29.9839 0
M  V30 7365 H  -1.1981 27.7764 -33.8326 0
M  V30 7366 H  2.7531 27.9295 -32.1152 0
M  V30 7367 H  0.7172 27.0789 -34.9308 0
M  V30 7368 H  -3.1349 32.0322 -28.6233 0
M  V30 7369 H  -2.8856 31.7255 -25.6490 0
M  V30 7370 H  -4.5242 33.7656 -27.1923 0
M  V30 7371 H  -4.7794 34.8688 -25.0098 0
M  V30 7372 H  -5.3966 33.2369 -24.8789 0
M  V30 7373 H  -3.8183 33.6241 -24.2184 0
M  V30 7374 H  -2.7967 35.4043 -26.3390 0
M  V30 7375 H  -1.7836 34.0392 -25.8884 0
M  V30 7376 H  -2.1835 34.3212 -27.5782 0
M  V30 7377 H  -4.2022 30.2279 -24.8254 0
M  V30 7378 H  -6.6404 29.3801 -26.3268 0
M  V30 7379 H  -6.4981 27.4042 -24.9675 0
M  V30 7380 H  -5.0832 27.9794 -24.1110 0
M  V30 7381 H  -6.3791 27.0108 -27.4815 0
M  V30 7382 H  -2.8866 27.5571 -25.0148 0
M  V30 7383 H  -4.9822 25.9238 -29.2243 0
M  V30 7384 H  -1.4986 26.4550 -26.7570 0
M  V30 7385 H  -2.8631 25.2787 -29.8500 0
M  V30 7386 H  -8.3420 30.5505 -25.6982 0
M  V30 7387 H  -8.6504 31.3628 -22.8473 0
M  V30 7388 H  -9.9835 32.4667 -25.3658 0
M  V30 7389 H  -7.6041 33.0046 -25.4049 0
M  V30 7390 H  -7.6652 33.6282 -23.7849 0
M  V30 7391 H  -10.7215 34.3435 -23.8141 0
M  V30 7392 H  -11.4518 32.8090 -23.4667 0
M  V30 7393 H  -10.1309 33.3758 -22.4616 0
M  V30 7394 H  -7.7019 35.3317 -25.7353 0
M  V30 7395 H  -9.3577 34.8105 -26.0367 0
M  V30 7396 H  -8.9310 35.5748 -24.5049 0
M  V30 7397 H  -10.4879 30.7797 -21.7403 0
M  V30 7398 H  -12.1121 28.5593 -22.7940 0
M  V30 7399 H  -12.9759 30.0662 -22.5139 0
M  V30 7400 H  -13.0429 27.4234 -21.0092 0
M  V30 7401 H  -11.9780 28.0360 -18.4004 0
M  V30 7402 H  -14.9653 28.4015 -18.9428 0
M  V30 7403 H  -13.8516 29.6526 -18.5429 0
M  V30 7404 H  -12.8085 23.5458 -18.8577 0
M  V30 7405 H  -10.5540 23.2851 -18.3314 0
M  V30 7406 H  -11.2131 22.6053 -16.8560 0
M  V30 7407 H  -9.4851 24.6211 -16.6045 0
M  V30 7408 H  -10.9928 24.7214 -15.7010 0
M  V30 7409 H  -11.1501 26.7472 -16.8613 0
M  V30 7410 H  -10.3456 26.1339 -18.3013 0
M  V30 7411 H  -13.7810 25.6762 -16.2964 0
M  V30 7412 H  -15.3901 23.6640 -14.8813 0
M  V30 7413 H  -16.0346 25.5410 -13.4795 0
M  V30 7414 H  -14.2831 25.5631 -13.6505 0
M  V30 7415 H  -15.2905 26.6937 -14.5594 0
M  V30 7416 H  -15.7287 25.3673 -17.8258 0
M  V30 7417 H  -18.7071 25.2750 -17.6790 0
M  V30 7418 H  -18.4528 26.5288 -19.9225 0
M  V30 7419 H  -16.7827 26.7630 -19.5047 0
M  V30 7420 H  -17.5240 27.8753 -17.3454 0
M  V30 7421 H  -19.1677 27.6216 -17.7688 0
M  V30 7422 H  -17.3720 30.9486 -19.0875 0
M  V30 7423 H  -16.6941 29.8701 -17.8889 0
M  V30 7424 H  -19.6780 24.5911 -19.8805 0
M  V30 7425 H  -19.2955 21.8485 -19.7667 0
M  V30 7426 H  -21.0249 21.8966 -21.7273 0
M  V30 7427 H  -20.9293 23.6177 -21.6213 0
M  V30 7428 H  -21.5188 23.3532 -19.0916 0
M  V30 7429 H  -24.0085 22.8336 -19.7205 0
M  V30 7430 H  -23.2324 24.2371 -20.4463 0
M  V30 7431 H  -23.3903 22.7370 -21.3593 0
M  V30 7432 H  -22.9559 20.9316 -19.1612 0
M  V30 7433 H  -21.4273 20.5077 -19.8748 0
M  V30 7434 H  -21.4630 21.2309 -18.2808 0
M  V30 7435 H  -16.4462 21.1531 -23.1655 0
M  V30 7436 H  -15.9088 19.2965 -21.8454 0
M  V30 7437 H  -16.4737 18.4292 -23.2550 0
M  V30 7438 H  -17.6375 17.8250 -20.9287 0
M  V30 7439 H  -18.6790 18.1542 -22.3110 0
M  V30 7440 H  -19.5715 19.7747 -20.8889 0
M  V30 7441 H  -18.0469 19.9932 -20.0155 0
M  V30 7442 H  -16.3339 19.9289 -25.2828 0
M  V30 7443 H  -18.4538 20.2210 -27.0936 0
M  V30 7444 H  -17.0173 18.9766 -28.5706 0
M  V30 7445 H  -15.9188 19.8295 -27.4976 0
M  V30 7446 H  -16.2193 18.1285 -27.2574 0
M  V30 7447 H  -20.9980 16.7073 -25.5799 0
M  V30 7448 H  -22.9793 16.7060 -26.9149 0
M  V30 7449 H  -22.0843 16.8775 -28.4172 0
M  V30 7450 H  -22.5838 18.9961 -26.3331 0
M  V30 7451 H  -22.8437 19.1309 -28.0731 0
M  V30 7452 H  -20.4393 19.2149 -28.4713 0
M  V30 7453 H  -20.6088 20.0994 -26.9432 0
M  V30 7454 H  -20.0631 14.7294 -25.3670 0
M  V30 7455 H  -18.9161 13.2504 -27.6921 0
M  V30 7456 H  -18.5396 11.5539 -25.7574 0
M  V30 7457 H  -18.8625 12.8710 -24.6608 0
M  V30 7458 H  -16.7265 12.6050 -26.7849 0
M  V30 7459 H  -16.4429 12.4683 -25.0662 0
M  V30 7460 H  -17.1077 14.9819 -24.9233 0
M  V30 7461 H  -17.0802 14.9759 -26.6879 0
M  V30 7462 H  -14.7460 13.8560 -26.2903 0
M  V30 7463 H  -14.3775 17.5891 -24.7432 0
M  V30 7464 H  -15.9824 16.9139 -24.9113 0
M  V30 7465 H  -12.5311 16.3425 -25.3892 0
M  V30 7466 H  -12.7380 14.7458 -26.0618 0
M  V30 7467 H  -20.7013 12.7543 -28.8953 0
M  V30 7468 H  -23.2223 11.9648 -27.8883 0
M  V30 7469 H  -23.6987 11.3045 -30.2157 0
M  V30 7470 H  -23.2813 13.4293 -31.3720 0
M  V30 7471 H  -23.7420 13.7450 -29.7046 0
M  V30 7472 H  -22.0557 13.8853 -30.1955 0
M  V30 7473 H  -21.7753 10.3274 -30.7749 0
M  V30 7474 H  -20.2923 10.0420 -28.5243 0
M  V30 7475 H  -21.6941 7.4862 -28.4705 0
M  V30 7476 H  -19.3871 6.5449 -28.4845 0
M  V30 7477 H  -18.7261 8.1408 -28.2695 0
M  V30 7478 H  -19.6185 8.8424 -30.4523 0
M  V30 7479 H  -17.9788 7.6740 -31.7956 0
M  V30 7480 H  -17.3177 7.8653 -30.1844 0
M  V30 7481 H  -17.9663 6.3057 -30.6949 0
M  V30 7482 H  -20.2089 6.4720 -31.8507 0
M  V30 7483 H  -21.1397 6.3260 -30.3740 0
M  V30 7484 H  -21.3366 7.7403 -31.4026 0
M  V30 7485 H  -19.9767 9.5464 -26.1121 0
M  V30 7486 H  -19.6041 7.6032 -24.0960 0
M  V30 7487 H  -19.7621 10.6380 -24.0133 0
M  V30 7488 H  -18.3266 9.6811 -24.2400 0
M  V30 7489 H  -20.0020 9.9351 -21.7180 0
M  V30 7490 H  -17.8817 8.5438 -20.7865 0
M  V30 7491 H  -19.3562 7.7731 -21.3068 0
M  V30 7492 H  -17.9721 7.8322 -22.3930 0
M  V30 7493 H  -18.5503 11.5039 -21.0284 0
M  V30 7494 H  -17.1390 10.5554 -21.4816 0
M  V30 7495 H  -17.9285 11.5692 -22.6689 0
M  V30 7496 H  -21.0491 6.5869 -22.8747 0
M  V30 7497 H  -23.5432 7.9583 -21.9844 0
M  V30 7498 H  -24.7712 5.8254 -22.3097 0
M  V30 7499 H  -25.0385 5.8366 -24.7446 0
M  V30 7500 H  -24.8975 7.4894 -24.1599 0
M  V30 7501 H  -23.5358 6.7197 -24.9588 0
M  V30 7502 H  -22.5788 4.8896 -23.7966 0
M  V30 7503 H  -20.7831 5.9312 -21.1916 0
M  V30 7504 H  -21.9605 5.2908 -18.5147 0
M  V30 7505 H  -20.2586 3.4090 -18.5899 0
M  V30 7506 H  -19.9519 3.8124 -20.2524 0
M  V30 7507 H  -22.5324 3.4379 -20.6238 0
M  V30 7508 H  -22.5597 2.8243 -18.9976 0
M  V30 7509 H  -22.3656 0.8982 -20.3557 0
M  V30 7510 H  -20.7634 1.1350 -19.7066 0
M  V30 7511 H  -20.0943 2.3072 -21.8731 0
M  V30 7512 H  -21.6897 1.9760 -22.5110 0
M  V30 7513 H  -19.7232 -0.0225 -21.6508 0
M  V30 7514 H  -21.2202 -0.3641 -22.2671 0
M  V30 7515 H  -20.0895 0.3929 -23.2040 0
M  V30 7516 H  -21.2019 6.6264 -17.0378 0
M  V30 7517 H  -18.2936 7.0822 -16.7231 0
M  V30 7518 H  -19.5739 7.3695 -15.5610 0
M  V30 7519 H  -18.3433 9.4127 -15.3014 0
M  V30 7520 H  -19.3457 11.5935 -17.0692 0
M  V30 7521 H  -18.3280 11.5334 -14.1763 0
M  V30 7522 H  -19.0227 13.9401 -14.0353 0
M  V30 7523 H  -17.6478 13.7444 -15.0991 0
M  V30 7524 H  -19.2559 13.9758 -15.7810 0
M  V30 7525 H  -20.4232 10.8081 -14.4955 0
M  V30 7526 H  -17.9050 12.7974 -18.2126 0
M  V30 7527 H  -15.0357 12.1979 -18.0687 0
M  V30 7528 H  -16.5773 14.1392 -19.8632 0
M  V30 7529 H  -16.3383 12.4634 -20.2495 0
M  V30 7530 H  -14.0632 14.4398 -19.8293 0
M  V30 7531 H  -12.8059 12.4714 -21.0791 0
M  V30 7532 H  -13.0875 12.3469 -19.3540 0
M  V30 7533 H  -14.1286 11.4771 -20.4608 0
M  V30 7534 H  -14.1201 15.0167 -22.0135 0
M  V30 7535 H  -14.3988 13.3741 -22.5615 0
M  V30 7536 H  -15.7502 14.3678 -22.0560 0
M  V30 7537 H  -13.8246 13.2589 -16.5610 0
M  V30 7538 H  -14.7469 15.6670 -15.3244 0
M  V30 7539 H  -12.4164 15.5406 -14.1846 0
M  V30 7540 H  -12.1381 14.1112 -15.1001 0
M  V30 7541 H  -12.9013 13.4294 -12.9240 0
M  V30 7542 H  -14.1423 13.0028 -14.0667 0
M  V30 7543 H  -13.1024 19.0073 -17.6991 0
M  V30 7544 H  -12.4071 20.8012 -16.2218 0
M  V30 7545 H  -11.6982 19.6626 -15.0856 0
M  V30 7546 H  -14.6305 19.9407 -15.7149 0
M  V30 7547 H  -13.8836 20.0652 -14.1204 0
M  V30 7548 H  -13.3852 17.6992 -14.1147 0
M  V30 7549 H  -14.9268 17.7465 -14.9853 0
M  V30 7550 H  -10.5365 17.3567 -15.7923 0
M  V30 7551 H  -8.3727 18.3839 -17.3359 0
M  V30 7552 H  -8.1427 17.6983 -14.9960 0
M  V30 7553 H  -7.0112 16.8815 -16.0225 0
M  V30 7554 H  -8.5433 14.8432 -15.9878 0
M  V30 7555 H  -9.6297 15.6938 -14.9230 0
M  V30 7556 H  -10.6925 16.2828 -18.4346 0
M  V30 7557 H  -8.8381 14.8804 -20.3138 0
M  V30 7558 H  -10.4084 12.9866 -20.2480 0
M  V30 7559 H  -11.4839 13.8879 -19.2094 0
M  V30 7560 H  -7.8450 12.8311 -19.1869 0
M  V30 7561 H  -11.5387 13.2358 -17.0043 0
M  V30 7562 H  -6.7726 11.8408 -17.1819 0
M  V30 7563 H  -10.4578 12.2653 -14.9859 0
M  V30 7564 H  -8.4663 11.5387 -14.0533 0
M  V30 7565 H  -10.9342 17.4452 -20.2412 0
M  V30 7566 H  -12.6586 16.9279 -22.4691 0
M  V30 7567 H  -12.7459 19.4575 -22.6067 0
M  V30 7568 H  -11.5245 19.5497 -21.3773 0
M  V30 7569 H  -13.8899 16.8713 -20.5940 0
M  V30 7570 H  -13.3217 21.1618 -20.5481 0
M  V30 7571 H  -15.7360 17.1215 -19.0207 0
M  V30 7572 H  -15.1817 21.3604 -18.9644 0
M  V30 7573 H  -16.3913 19.3387 -18.1981 0
M  V30 7574 H  -9.3311 18.0930 -22.2510 0
M  V30 7575 H  -8.5428 17.2896 -24.7409 0
M  V30 7576 H  -9.8399 19.0162 -25.8639 0
M  V30 7577 H  -8.1922 19.4684 -25.9603 0
M  V30 7578 H  -10.8777 21.9990 -24.3333 0
M  V30 7579 H  -11.3085 20.4995 -25.1062 0
M  V30 7580 H  -6.3025 18.4600 -25.2628 0
M  V30 7581 H  -4.6443 18.0391 -23.0395 0
M  V30 7582 H  -2.8637 18.9372 -24.6450 0
M  V30 7583 H  -4.1476 19.2865 -25.7868 0
M  V30 7584 H  -3.3785 17.2620 -26.1824 0
M  V30 7585 H  -5.9821 21.1387 -24.2529 0
M  V30 7586 H  -4.2399 22.7756 -22.6222 0
M  V30 7587 H  -6.8616 23.3800 -24.0489 0
M  V30 7588 H  -6.2411 25.8279 -23.6084 0
M  V30 7589 H  -6.8876 24.9737 -22.2426 0
M  V30 7590 H  -5.1509 25.2547 -22.3717 0
M  V30 7591 H  -5.4866 24.6220 -25.6221 0
M  V30 7592 H  -4.0272 24.2670 -24.7036 0
M  V30 7593 H  -4.8927 22.9753 -25.5291 0
M  V30 7594 H  -7.6293 21.5633 -22.2930 0
M  V30 7595 H  -8.1019 22.7586 -19.7432 0
M  V30 7596 H  -10.0043 21.0980 -19.6134 0
M  V30 7597 H  -9.4503 20.4035 -21.1362 0
M  V30 7598 H  -9.6550 22.5761 -22.5192 0
M  V30 7599 H  -6.4985 19.7382 -20.7066 0
M  V30 7600 H  -6.2976 18.5957 -18.1112 0
M  V30 7601 H  -4.5063 18.2304 -20.5449 0
M  V30 7602 H  -5.9231 17.3081 -20.1547 0
M  V30 7603 H  -4.5204 16.9600 -17.7971 0
M  V30 7604 H  -3.2242 17.3446 -18.8810 0
M  V30 7605 H  -3.4777 15.4461 -20.2080 0
M  V30 7606 H  -5.1112 15.0890 -19.7029 0
M  V30 7607 H  -2.5431 14.3820 -18.5242 0
M  V30 7608 H  -5.7012 14.2149 -15.9529 0
M  V30 7609 H  -5.9246 14.9665 -17.5079 0
M  V30 7610 H  -3.7079 13.1958 -15.4409 0
M  V30 7611 H  -2.3456 13.2884 -16.5236 0
M  V30 7612 H  -4.1204 20.9145 -19.8602 0
M  V30 7613 H  -2.2494 21.1076 -17.7177 0
M  V30 7614 H  -1.6294 23.3125 -18.8305 0
M  V30 7615 H  -2.9286 23.0716 -19.9561 0
M  V30 7616 H  -1.8317 20.9997 -20.7855 0
M  V30 7617 H  0.1673 22.1838 -21.8078 0
M  V30 7618 H  -1.3676 23.0344 -21.9754 0
M  V30 7619 H  -0.1902 23.5610 -20.7756 0
M  V30 7620 H  0.8321 21.1372 -19.8684 0
M  V30 7621 H  -0.1105 21.2697 -18.4075 0
M  V30 7622 H  -0.3495 19.9001 -19.4793 0
M  V30 7623 H  -5.1367 23.1389 -18.5108 0
M  V30 7624 H  -4.8090 25.0215 -16.4539 0
M  V30 7625 H  -7.3098 25.3491 -16.7318 0
M  V30 7626 H  -7.3232 23.9985 -17.8275 0
M  V30 7627 H  -5.7061 25.3411 -19.3254 0
M  V30 7628 H  -5.8671 26.6663 -18.1935 0
M  V30 7629 H  -8.2328 28.0748 -21.0204 0
M  V30 7630 H  -6.8992 28.4387 -19.9284 0
M  V30 7631 H  -6.6741 27.2856 -21.2651 0
M  V30 7632 H  -6.0531 21.7122 -16.2107 0
M  V30 7633 H  -7.1181 22.1903 -13.4899 0
M  V30 7634 H  -7.9027 19.7692 -13.8478 0
M  V30 7635 H  -7.2825 19.8847 -15.4638 0
M  V30 7636 H  -9.6414 20.3211 -15.5342 0
M  V30 7637 H  -8.8453 21.8043 -15.9183 0
M  V30 7638 H  -10.7762 22.1758 -14.4622 0
M  V30 7639 H  -9.3147 22.7728 -13.7446 0
M  V30 7640 H  -9.2099 20.7608 -12.2378 0
M  V30 7641 H  -10.6235 20.0824 -13.0251 0
M  V30 7642 H  -11.8793 21.9671 -12.2527 0
M  V30 7643 H  -11.1705 21.1683 -10.9974 0
M  V30 7644 H  -10.5447 22.5996 -11.5191 0
M  V30 7645 H  -4.2030 20.8865 -14.9638 0
M  V30 7646 H  -3.5427 19.4236 -12.4513 0
M  V30 7647 H  -1.7104 18.4029 -13.7236 0
M  V30 7648 H  -3.0904 16.9267 -15.2028 0
M  V30 7649 H  -3.8235 17.1591 -13.6227 0
M  V30 7650 H  -4.4645 18.0109 -15.0128 0
M  V30 7651 H  -2.8178 19.4680 -16.0672 0
M  V30 7652 H  -1.8433 21.6554 -14.8128 0
M  V30 7653 H  -0.0170 22.4798 -12.6368 0
M  V30 7654 H  1.2721 23.5764 -14.3268 0
M  V30 7655 H  -0.7614 24.1466 -15.9102 0
M  V30 7656 H  -0.4476 22.5952 -16.6021 0
M  V30 7657 H  2.1234 21.6346 -15.5362 0
M  V30 7658 H  1.6705 21.1750 -13.9046 0
M  V30 7659 H  0.6265 20.7541 -15.2576 0
M  V30 7660 H  0.7143 24.3584 -17.8655 0
M  V30 7661 H  1.4989 24.9591 -16.4087 0
M  V30 7662 H  1.9477 23.3877 -17.0742 0
M  V30 7663 H  -3.0034 23.5257 -13.7993 0
M  V30 7664 H  -2.7635 26.1683 -12.4979 0
M  V30 7665 H  -4.2108 25.3481 -13.0388 0
M  V30 7666 H  -3.8196 27.7821 -16.8622 0
M  V30 7667 H  -6.0632 28.3353 -16.4525 0
M  V30 7668 H  -5.3794 29.9487 -16.3921 0
M  V30 7669 H  -6.7879 29.1427 -14.2547 0
M  V30 7670 H  -5.2122 29.8462 -13.9601 0
M  V30 7671 H  -4.8779 27.7676 -12.8717 0
M  V30 7672 H  -5.9284 26.9087 -14.0083 0
M  V30 7673 H  -2.4547 29.4193 -17.7049 0
M  V30 7674 H  -0.4414 30.5705 -16.0412 0
M  V30 7675 H  0.2199 31.8676 -18.1044 0
M  V30 7676 H  -1.2094 31.2852 -18.9118 0
M  V30 7677 H  -3.5271 31.7936 -17.2215 0
M  V30 7678 H  -3.2310 34.3116 -15.6588 0
M  V30 7679 H  -4.2884 35.4715 -17.6098 0
M  V30 7680 H  -4.2760 33.9687 -18.4977 0
M  V30 7681 H  -1.6848 34.0261 -18.3449 0
M  V30 7682 H  -1.8517 35.6318 -17.6941 0
M  V30 7683 H  -2.8174 34.1947 -21.9942 0
M  V30 7684 H  -2.3070 33.1693 -20.6399 0
M  V30 7685 H  -3.9401 33.8185 -20.6926 0
M  V30 7686 H  -5.1818 34.9845 -14.7038 0
M  V30 7687 H  -7.6223 33.3974 -15.2051 0
M  V30 7688 H  -6.3293 33.7736 -12.4730 0
M  V30 7689 H  -6.4067 32.2853 -13.3651 0
M  V30 7690 H  -8.3034 34.5764 -11.1919 0
M  V30 7691 H  -8.5893 31.0894 -13.7075 0
M  V30 7692 H  -10.4537 33.9642 -10.1485 0
M  V30 7693 H  -10.7595 30.5414 -12.6736 0
M  V30 7694 H  -11.6771 31.9686 -10.8919 0
M  V30 7695 H  -9.2679 34.7397 -15.5731 0
M  V30 7696 H  -9.1066 37.5868 -14.8438 0
M  V30 7697 H  -11.2073 37.7444 -16.1240 0
M  V30 7698 H  -11.2779 36.0030 -16.2664 0
M  V30 7699 H  -9.2198 36.0106 -17.6213 0
M  V30 7700 H  -10.5737 37.7232 -19.4525 0
M  V30 7701 H  -10.6937 35.9811 -19.2970 0
M  V30 7702 H  -11.8137 37.0165 -18.4409 0
M  V30 7703 H  -8.7898 38.6033 -18.5468 0
M  V30 7704 H  -9.0993 38.8836 -16.8466 0
M  V30 7705 H  -7.8163 37.7919 -17.3386 0
M  V30 7706 H  -9.4259 37.9418 -12.7205 0
M  V30 7707 H  -9.8478 37.3489 -10.5658 0
M  V30 7708 H  -10.7524 35.9580 -11.0994 0
M  V30 7709 H  -12.1601 38.7816 -12.5434 0
M  V30 7710 H  -14.0516 39.1065 -10.2364 0
M  V30 7711 H  -12.8663 41.2221 -12.0777 0
M  V30 7712 H  -14.1471 42.8725 -10.6569 0
M  V30 7713 H  -15.2060 41.9011 -11.6571 0
M  V30 7714 H  -15.0422 41.5353 -9.9384 0
M  V30 7715 H  -11.5906 40.5584 -10.3458 0
M  V30 7716 H  -15.9095 38.1993 -10.7800 0
M  V30 7717 H  -17.0399 38.1323 -13.4651 0
M  V30 7718 H  -18.1908 37.4098 -10.7333 0
M  V30 7719 H  -17.4755 36.3090 -11.8524 0
M  V30 7720 H  -18.0170 39.7989 -14.3809 0
M  V30 7721 H  -18.9824 42.0680 -12.7436 0
M  V30 7722 H  -18.7907 43.3840 -14.7217 0
M  V30 7723 H  -18.4961 41.9917 -15.7270 0
M  V30 7724 H  -16.2736 41.6107 -14.7886 0
M  V30 7725 H  -16.6678 42.5952 -13.4184 0
M  V30 7726 H  -16.6010 43.8973 -16.1241 0
M  V30 7727 H  -15.0931 43.5993 -15.2923 0
M  V30 7728 H  -17.2733 44.9207 -13.7704 0
M  V30 7729 H  -15.8136 48.0896 -13.7693 0
M  V30 7730 H  -17.0463 47.0624 -13.0884 0
M  V30 7731 H  -14.3432 47.2675 -15.3460 0
M  V30 7732 H  -14.4739 45.6153 -15.8840 0
M  V30 7733 H  -20.2961 39.3280 -14.2081 0
M  V30 7734 H  -22.7386 40.5939 -15.2306 0
M  V30 7735 H  -21.7306 37.7307 -15.0434 0
M  V30 7736 H  -21.6722 38.7642 -16.4429 0
M  V30 7737 H  -24.0372 38.7103 -16.7161 0
M  V30 7738 H  -24.3868 37.9258 -15.2046 0
M  V30 7739 H  -24.5202 36.1354 -16.7607 0
M  V30 7740 H  -22.9193 35.9923 -16.0643 0
M  V30 7741 H  -22.9340 37.6479 -18.4155 0
M  V30 7742 H  -21.7805 33.7733 -18.7762 0
M  V30 7743 H  -22.6737 34.2685 -17.3609 0
M  V30 7744 H  -21.2740 35.3549 -20.4291 0
M  V30 7745 H  -21.7628 37.0122 -20.2087 0
M  V30 7746 H  -21.9152 38.0916 -12.7600 0
M  V30 7747 H  -24.7002 37.8403 -12.1809 0
M  V30 7748 H  -23.8803 35.9010 -10.7459 0
M  V30 7749 H  -22.2379 36.3624 -11.1327 0
M  V30 7750 H  -24.6927 35.5952 -13.1826 0
M  V30 7751 H  -24.7911 40.0155 -8.1956 0
M  V30 7752 H  -27.0932 39.7928 -8.4842 0
M  V30 7753 H  -26.9254 38.8137 -7.0314 0
M  V30 7754 H  -28.1397 37.6848 -9.1344 0
M  V30 7755 H  -26.8274 36.7801 -8.3784 0
M  V30 7756 H  -26.0025 36.8521 -10.5803 0
M  V30 7757 H  -26.6856 38.4418 -10.8922 0
M  V30 7758 H  -24.0076 39.6447 -6.0682 0
M  V30 7759 H  -21.9238 37.9214 -5.9771 0
M  V30 7760 H  -21.6890 38.5430 -3.5663 0
M  V30 7761 H  -22.0402 39.9247 -4.5850 0
M  V30 7762 H  -23.3130 39.2167 -3.6029 0
M  V30 7763 H  -25.1749 36.9890 -4.7646 0
M  V30 7764 H  -24.4122 34.7406 -3.2410 0
M  V30 7765 H  -26.6588 33.9088 -3.6634 0
M  V30 7766 H  -26.9129 34.9836 -4.9778 0
M  V30 7767 H  -26.2466 36.2408 -2.2992 0
M  V30 7768 H  -27.7432 35.3636 -2.3882 0
M  V30 7769 H  -25.1175 35.0201 -6.7528 0
M  V30 7770 H  -24.6866 32.2555 -7.3949 0
M  V30 7771 H  -24.8231 34.8057 -9.0256 0
M  V30 7772 H  -26.9019 33.7756 -7.9653 0
M  V30 7773 H  -26.6700 32.4185 -9.0281 0
M  V30 7774 H  -24.8751 33.4239 -11.1208 0
M  V30 7775 H  -23.3111 33.3774 -10.3767 0
M  V30 7776 H  -24.4080 32.0081 -10.1928 0
M  V30 7777 H  -27.9472 34.9650 -9.6038 0
M  V30 7778 H  -26.6367 34.7207 -10.7476 0
M  V30 7779 H  -27.8903 33.5071 -10.5749 0
M  V30 7780 H  -22.5698 35.1657 -7.4557 0
M  V30 7781 H  -20.3748 33.8892 -8.7125 0
M  V30 7782 H  -20.3375 36.2604 -6.8021 0
M  V30 7783 H  -18.1765 36.7771 -8.1820 0
M  V30 7784 H  -18.0334 35.5357 -6.9495 0
M  V30 7785 H  -18.2227 35.0997 -8.6493 0
M  V30 7786 H  -20.2934 37.6680 -8.8378 0
M  V30 7787 H  -20.4258 36.2267 -9.8363 0
M  V30 7788 H  -21.7581 36.7093 -8.7859 0
M  V30 7789 H  -21.0376 34.5070 -5.1979 0
M  V30 7790 H  -18.7670 33.1837 -4.2007 0
M  V30 7791 H  -19.9284 33.1422 -2.0140 0
M  V30 7792 H  -21.4377 33.5844 -2.7913 0
M  V30 7793 H  -21.9367 31.8512 -5.1419 0
M  V30 7794 H  -21.6077 29.2662 -3.9896 0
M  V30 7795 H  -23.2496 30.2098 -6.3881 0
M  V30 7796 H  -24.5739 28.1119 -6.1342 0
M  V30 7797 H  -22.9776 27.7676 -6.7398 0
M  V30 7798 H  -23.3545 27.4571 -5.0484 0
M  V30 7799 H  -23.9338 31.0088 -4.4708 0
M  V30 7800 H  -21.0368 30.3896 -7.4279 0
M  V30 7801 H  -19.9033 27.8611 -8.1562 0
M  V30 7802 H  -19.3250 28.8141 -10.2577 0
M  V30 7803 H  -21.5225 29.1769 -11.0950 0
M  V30 7804 H  -21.6883 28.0978 -9.7337 0
M  V30 7805 H  -22.0964 29.8111 -9.5607 0
M  V30 7806 H  -19.8058 31.1516 -10.9275 0
M  V30 7807 H  -20.1557 31.5709 -9.2594 0
M  V30 7808 H  -18.5351 31.0891 -9.7286 0
M  V30 7809 H  -18.5074 30.8382 -6.8734 0
M  V30 7810 H  -15.8122 30.4242 -7.4961 0
M  V30 7811 H  -17.0120 31.8331 -5.0875 0
M  V30 7812 H  -16.7042 32.5504 -6.6624 0
M  V30 7813 H  -14.9918 33.0560 -5.5527 0
M  V30 7814 H  -17.7123 29.3239 -4.6513 0
M  V30 7815 H  -15.6030 27.7585 -3.5003 0
M  V30 7816 H  -17.4655 26.9080 -2.0582 0
M  V30 7817 H  -17.4731 28.6618 -2.1674 0
M  V30 7818 H  -18.6389 27.7219 -3.0926 0
M  V30 7819 H  -18.2465 26.9983 -5.8170 0
M  V30 7820 H  -18.0410 24.1910 -5.5485 0
M  V30 7821 H  -19.2194 25.8551 -7.7952 0
M  V30 7822 H  -20.0658 25.4592 -6.3237 0
M  V30 7823 H  -19.1068 23.4075 -8.3661 0
M  V30 7824 H  -19.4982 21.8416 -6.8540 0
M  V30 7825 H  -20.0250 23.0228 -5.6687 0
M  V30 7826 H  -21.1842 22.3090 -6.7751 0
M  V30 7827 H  -21.9008 23.4336 -8.4890 0
M  V30 7828 H  -21.4741 25.1339 -8.4239 0
M  V30 7829 H  -20.7902 24.0992 -9.6647 0
M  V30 7830 H  -16.6129 26.3841 -8.0487 0
M  V30 7831 H  -15.0083 24.0895 -9.0768 0
M  V30 7832 H  -15.4866 24.9166 -11.3839 0
M  V30 7833 H  -17.5071 23.7421 -11.7644 0
M  V30 7834 H  -16.6675 22.9096 -10.4613 0
M  V30 7835 H  -18.0442 23.9583 -10.1154 0
M  V30 7836 H  -17.4073 26.3346 -11.8869 0
M  V30 7837 H  -17.8034 26.5027 -10.1913 0
M  V30 7838 H  -16.3202 27.2090 -10.8257 0
M  V30 7839 H  -14.7748 27.3580 -7.9943 0
M  V30 7840 H  -12.2917 27.7313 -9.6445 0
M  V30 7841 H  -12.6397 30.1404 -9.4491 0
M  V30 7842 H  -14.0272 29.9115 -8.4422 0
M  V30 7843 H  -12.7055 28.7012 -11.7544 0
M  V30 7844 H  -16.1116 30.2480 -9.5929 0
M  V30 7845 H  -14.0840 28.5423 -13.7809 0
M  V30 7846 H  -17.4921 30.0596 -11.6331 0
M  V30 7847 H  -16.1410 28.9551 -14.7428 0
M  V30 7848 H  -12.8568 26.5813 -6.6864 0
M  V30 7849 H  -11.7427 26.5153 -4.7793 0
M  V30 7850 H  -9.2984 26.5786 -4.7988 0
M  V30 7851 H  -9.2747 27.4941 -6.2886 0
M  V30 7852 H  -13.2002 28.8811 -5.0948 0
M  V30 7853 H  -13.7148 30.7197 -4.0797 0
M  V30 7854 H  -12.7249 31.3407 -1.8827 0
M  V30 7855 H  -11.4527 30.1744 -2.1069 0
M  V30 7856 H  -13.4510 27.4527 -1.0001 0
M  V30 7857 H  -11.8840 28.0162 -1.5220 0
M  V30 7858 H  -11.6523 30.7762 -6.3045 0
M  V30 7859 H  -10.0855 33.2021 -5.7660 0
M  V30 7860 H  -9.2091 32.7774 -8.0515 0
M  V30 7861 H  -10.3310 31.4623 -8.2448 0
M  V30 7862 H  -9.1633 30.2304 -6.3725 0
M  V30 7863 H  -8.1343 31.6078 -6.1120 0
M  V30 7864 H  -6.9096 29.9598 -7.3914 0
M  V30 7865 H  -7.1717 31.3630 -8.3901 0
M  V30 7866 H  -9.1044 30.1567 -9.5423 0
M  V30 7867 H  -8.7795 28.7513 -8.5394 0
M  V30 7868 H  -6.6192 28.6246 -9.5230 0
M  V30 7869 H  -7.7996 28.5797 -10.6735 0
M  V30 7870 H  -6.9200 29.9567 -10.4515 0
M  V30 7871 H  -13.1551 32.4152 -7.3898 0
M  V30 7872 H  -13.0842 34.8044 -9.0505 0
M  V30 7873 H  -15.3017 32.7879 -8.5263 0
M  V30 7874 H  -14.1635 32.7225 -9.8376 0
M  V30 7875 H  -16.1605 34.9935 -9.4099 0
M  V30 7876 H  -15.3717 35.1119 -12.0682 0
M  V30 7877 H  -14.8150 36.1554 -10.7797 0
M  V30 7878 H  -13.8637 34.7589 -11.2494 0
M  V30 7879 H  -17.2252 33.9302 -11.5464 0
M  V30 7880 H  -16.3526 32.4849 -11.0693 0
M  V30 7881 H  -17.5368 33.2018 -9.9818 0
M  V30 7882 H  -13.6425 36.7897 -8.4427 0
M  V30 7883 H  -15.1041 37.2175 -5.8786 0
M  V30 7884 H  -14.0042 39.4590 -5.9775 0
M  V30 7885 H  -13.2557 39.0474 -7.4946 0
M  V30 7886 H  -11.6354 38.8396 -5.6991 0
M  V30 7887 H  -11.9035 37.2854 -6.4041 0
M  V30 7888 H  -13.7562 37.6293 -4.1510 0
M  V30 7889 H  -12.1669 38.1025 -3.6505 0
M  V30 7890 H  -11.2133 35.9117 -4.3135 0
M  V30 7891 H  -12.7488 35.4116 -4.9893 0
M  V30 7892 H  -13.7221 35.5440 -2.8282 0
M  V30 7893 H  -12.4303 34.5185 -2.8483 0
M  V30 7894 H  -12.2850 36.0146 -2.1651 0
M  V30 7895 H  -16.7819 38.6990 -5.7634 0
M  V30 7896 H  -18.3307 39.0403 -8.2489 0
M  V30 7897 H  -20.1703 39.4695 -6.7410 0
M  V30 7898 H  -19.2950 38.1096 -6.0536 0
M  V30 7899 H  -19.1049 39.7053 -5.3573 0
M  V30 7900 H  -18.3727 40.9169 -9.3554 0
M  V30 7901 H  -17.2871 43.4049 -8.2668 0
M  V30 7902 H  -18.8017 42.7823 -10.8133 0
M  V30 7903 H  -17.0590 42.8200 -10.6921 0
M  V30 7904 H  -16.3111 45.6842 -9.4994 0
M  V30 7905 H  -19.3496 47.3275 -11.9026 0
M  V30 7906 H  -20.5088 42.0521 -9.1503 0
M  V30 7907 H  -21.9940 44.3261 -8.1187 0
M  V30 7908 H  -23.9435 42.7693 -8.4655 0
M  V30 7909 H  -22.8497 41.5063 -8.9504 0
M  V30 7910 H  -22.1576 42.8112 -10.9263 0
M  V30 7911 H  -23.0049 44.2230 -10.3449 0
M  V30 7912 H  -25.1849 42.9707 -10.5351 0
M  V30 7913 H  -24.3212 41.5964 -11.1700 0
M  V30 7914 H  -23.5349 42.9904 -13.1198 0
M  V30 7915 H  -24.3638 44.3877 -12.4627 0
M  V30 7916 H  -25.6273 41.8899 -13.3121 0
M  V30 7917 H  -26.4262 43.1980 -12.7088 0
M  V30 7918 H  -25.6291 43.3129 -14.1524 0
M  V30 7919 H  -23.2659 44.3665 -6.2854 0
M  V30 7920 H  -22.5570 42.7910 -3.9582 0
M  V30 7921 H  -24.3544 44.1159 -2.8510 0
M  V30 7922 H  -24.9108 44.6969 -4.4079 0
M  V30 7923 H  -24.4726 41.8488 -2.6483 0
M  V30 7924 H  -25.7885 39.7371 -4.0588 0
M  V30 7925 H  -27.1417 39.6309 -1.8829 0
M  V30 7926 H  -26.2157 40.9751 -1.2864 0
M  V30 7927 H  -24.1422 39.6121 -1.4203 0
M  V30 7928 H  -25.0117 38.3136 -2.2068 0
M  V30 7929 H  -26.4849 38.0932 -0.1739 0
M  V30 7930 H  -25.5570 39.3207 0.6321 0
M  V30 7931 H  -24.3945 36.6575 -0.3692 0
M  V30 7932 H  -24.9659 36.9313 1.2634 0
M  V30 7933 H  -23.3211 38.6324 1.5298 0
M  V30 7934 H  -22.6301 37.1904 1.1199 0
M  V30 7935 H  -22.7651 38.3821 -0.0041 0
M  V30 7936 H  -27.6858 39.7863 -5.2028 0
M  V30 7937 H  -29.0949 42.2833 -5.5881 0
M  V30 7938 H  -28.7479 40.7219 -7.4417 0
M  V30 7939 H  -30.4450 40.9743 -7.1645 0
M  V30 7940 H  -29.9131 38.7844 -7.4687 0
M  V30 7941 H  -29.5474 39.4887 -3.5227 0
M  V30 7942 H  -31.0613 38.7707 -2.1092 0
M  V30 7943 H  -32.6296 40.2410 -0.9714 0
M  V30 7944 H  -31.1273 41.1211 -1.1964 0
M  V30 7945 H  -32.5136 41.4618 -2.2295 0
M  V30 7946 H  -31.3574 38.6627 -5.1052 0
M  V30 7947 H  -34.2104 37.8085 -5.2716 0
M  V30 7948 H  -34.1536 38.4807 -7.6255 0
M  V30 7949 H  -32.5100 39.0440 -7.4885 0
M  V30 7950 H  -33.1385 40.8982 -6.0679 0
M  V30 7951 H  -34.6936 40.1947 -5.7016 0
M  V30 7952 H  -34.4423 42.7341 -8.7938 0
M  V30 7953 H  -33.1718 42.5044 -7.6227 0
M  V30 7954 H  -31.5106 36.3829 -4.6264 0
M  V30 7955 H  -31.6244 34.2898 -6.7472 0
M  V30 7956 H  -29.5104 33.4954 -5.7836 0
M  V30 7957 H  -29.4989 34.8220 -4.6254 0
M  V30 7958 H  -29.3637 36.7308 -6.2805 0
M  V30 7959 H  -32.9841 32.6992 -6.2941 0
M  V30 7960 H  -33.5725 31.9714 -3.4796 0
M  V30 7961 H  -35.8789 31.4619 -4.3452 0
M  V30 7962 H  -35.4288 32.1082 -5.9013 0
M  V30 7963 H  -35.5773 33.0685 -2.2583 0
M  V30 7964 H  -35.7518 34.4163 -6.3532 0
M  V30 7965 H  -36.1187 35.3501 -1.5030 0
M  V30 7966 H  -36.3278 36.6770 -5.5594 0
M  V30 7967 H  -36.4912 37.1452 -3.1494 0
M  V30 7968 H  -34.0037 29.8367 -2.9953 0
M  V30 7969 H  -33.6614 27.8119 -5.1176 0
M  V30 7970 H  -31.4731 28.0063 -4.0496 0
M  V30 7971 H  -32.2164 26.4771 -3.7146 0
M  V30 7972 H  -32.8652 27.2912 -1.4171 0
M  V30 7973 H  -32.0913 28.8158 -1.7449 0
M  V30 7974 H  -29.9085 27.7644 -1.9120 0
M  V30 7975 H  -30.6067 26.1641 -1.9290 0
M  V30 7976 H  -31.4208 26.5200 0.4387 0
M  V30 7977 H  -30.6862 28.1091 0.4476 0
M  V30 7978 H  -28.5617 27.0575 0.1088 0
M  V30 7979 H  -29.2962 26.4645 1.4648 0
M  V30 7980 H  -29.2606 25.5703 0.0753 0
M  V30 7981 H  -34.8654 25.9772 -4.8728 0
M  V30 7982 H  -36.5180 25.5866 -2.4313 0
M  V30 7983 H  -38.3179 24.7411 -4.0899 0
M  V30 7984 H  -37.4516 25.5795 -5.3462 0
M  V30 7985 H  -37.7715 27.7381 -4.1689 0
M  V30 7986 H  -38.4932 26.8837 -2.8141 0
M  V30 7987 H  -41.9939 25.8940 -3.9161 0
M  V30 7988 H  -40.6153 24.8090 -4.0932 0
M  V30 7989 H  -40.7385 25.8503 -2.6699 0
M  V30 7990 H  -36.5156 23.5018 -1.7720 0
M  V30 7991 H  -35.1719 21.4785 -3.5026 0
M  V30 7992 H  -35.7894 21.3976 -0.5054 0
M  V30 7993 H  -34.2770 21.9021 -1.2013 0
M  V30 7994 H  -33.0233 20.3361 -2.8042 0
M  V30 7995 H  -36.2234 18.9980 -0.2328 0
M  V30 7996 H  -32.3075 18.0075 -3.0685 0
M  V30 7997 H  -35.4264 16.6783 -0.4865 0
M  V30 7998 H  -33.4341 16.2000 -1.8712 0
M  V30 7999 H  -36.6286 20.4835 -4.7793 0
M  V30 8000 H  -39.0737 19.3361 -3.6844 0
M  V30 8001 H  -39.2066 21.5740 -5.7819 0
M  V30 8002 H  -39.7013 21.7432 -4.1283 0
M  V30 8003 H  -40.7110 20.5251 -7.4078 0
M  V30 8004 H  -41.6084 20.4126 -3.1949 0
M  V30 8005 H  -42.9992 19.7538 -7.9032 0
M  V30 8006 H  -43.9169 19.6557 -3.7015 0
M  V30 8007 H  -45.0824 19.2244 -7.0607 0
M  V30 8008 H  -38.5405 17.3185 -4.3673 0
M  V30 8009 H  -37.1520 16.7954 -6.8107 0
M  V30 8010 H  -37.5855 14.4113 -6.2101 0
M  V30 8011 H  -38.6100 14.9157 -4.8907 0
M  V30 8012 H  -36.7054 16.0015 -3.7643 0
M  V30 8013 H  -35.6946 15.7888 -5.1697 0
M  V30 8014 H  -35.7971 13.3233 -4.9083 0
M  V30 8015 H  -36.8360 13.4928 -3.5177 0
M  V30 8016 H  -35.0932 14.5824 -2.2031 0
M  V30 8017 H  -34.0635 14.7795 -3.6141 0
M  V30 8018 H  -33.8040 12.4728 -3.7744 0
M  V30 8019 H  -33.3323 12.9922 -2.2848 0
M  V30 8020 H  -34.7709 12.1955 -2.4610 0
M  V30 8021 H  -40.5798 17.0505 -6.1033 0
M  V30 8022 H  -41.3766 17.1877 -8.7785 0
M  V30 8023 H  -42.4336 16.9471 -7.3992 0
M  V30 8024 H  -42.2370 15.7103 -10.2417 0
M  V30 8025 H  -42.0110 12.8155 -9.6235 0
M  V30 8026 H  -44.3712 14.1550 -11.0417 0
M  V30 8027 H  -45.2923 11.8504 -11.3795 0
M  V30 8028 H  -43.8661 12.1430 -12.3441 0
M  V30 8029 H  -43.7470 11.1781 -10.8750 0
M  V30 8030 H  -45.7804 13.0400 -9.3287 0
M  V30 8031 H  -44.3369 12.4224 -8.5312 0
M  V30 8032 H  -44.6533 14.1512 -8.5775 0
M  V30 8033 H  -40.4738 12.1033 -10.9726 0
M  V30 8034 H  -39.8809 13.5199 -13.4699 0
M  V30 8035 H  -38.5449 11.0551 -12.2583 0
M  V30 8036 H  -37.9847 14.0160 -12.0153 0
M  V30 8037 H  -36.6466 12.9090 -11.9850 0
M  V30 8038 H  -36.7078 11.5359 -13.8691 0
M  V30 8039 H  -38.1793 11.1608 -14.7231 0
M  V30 8040 H  -37.6622 12.8348 -14.5847 0
M  V30 8041 H  -37.0644 13.1268 -9.7167 0
M  V30 8042 H  -38.8036 13.2302 -9.9058 0
M  V30 8043 H  -37.9896 11.6706 -10.0580 0
M  V30 8044 H  -40.7869 12.9772 -15.3240 0
M  V30 8045 H  -41.6184 10.1645 -15.8921 0
M  V30 8046 H  -43.1859 11.1119 -17.5633 0
M  V30 8047 H  -44.9602 11.9132 -16.0595 0
M  V30 8048 H  -44.0932 10.5885 -15.2909 0
M  V30 8049 H  -43.7889 12.2493 -14.7893 0
M  V30 8050 H  -42.6248 13.6241 -16.4108 0
M  V30 8051 H  -40.9716 9.3930 -17.9126 0
M  V30 8052 H  -38.7621 10.8967 -19.2637 0
M  V30 8053 H  -37.7865 8.6367 -19.6496 0
M  V30 8054 H  -39.0954 7.8894 -18.7737 0
M  V30 8055 H  -38.6266 7.6347 -15.9918 0
M  V30 8056 H  -36.1712 10.2845 -18.1722 0
M  V30 8057 H  -35.2388 10.0763 -15.8273 0
M  V30 8058 H  -38.7324 10.8868 -21.4675 0
M  V30 8059 H  -40.7124 9.1944 -22.9140 0
M  V30 8060 H  -41.3047 11.4916 -23.3146 0
M  V30 8061 H  -40.7782 10.7106 -24.7624 0
M  V30 8062 H  -39.1922 9.6891 -25.4089 0
M  V30 8063 H  -37.7070 7.3013 -25.2693 0
M  V30 8064 H  -37.0626 7.8256 -27.6171 0
M  V30 8065 H  -39.3058 7.6827 -28.5739 0
M  V30 8066 H  -39.1722 6.6701 -27.1442 0
M  V30 8067 H  -40.0237 8.2090 -27.0552 0
M  V30 8068 H  -38.0417 9.8155 -28.7751 0
M  V30 8069 H  -38.4688 10.5054 -27.2143 0
M  V30 8070 H  -36.7818 10.2496 -27.6407 0
M  V30 8071 H  -36.5143 10.6457 -24.8444 0
M  V30 8072 H  -33.8144 9.6385 -24.4103 0
M  V30 8073 H  -33.9356 9.7713 -26.9275 0
M  V30 8074 H  -32.7335 10.8237 -26.2378 0
M  V30 8075 H  -35.3191 11.5809 -27.1023 0
M  V30 8076 H  -36.0103 11.3558 -23.0061 0
M  V30 8077 H  -34.1441 13.2399 -21.8208 0
M  V30 8078 H  -36.5915 14.3096 -23.3219 0
M  V30 8079 H  -34.9988 14.3350 -24.0193 0
M  V30 8080 H  -34.3006 15.7453 -22.5911 0
M  V30 8081 H  -35.3736 14.6276 -20.1355 0
M  V30 8082 H  -37.4378 12.9634 -18.7519 0
M  V30 8083 H  -36.3948 13.6586 -16.6392 0
M  V30 8084 H  -35.1887 12.8585 -17.6364 0
M  V30 8085 H  -35.1899 14.6146 -17.4929 0
M  V30 8086 H  -38.9923 14.0295 -17.6017 0
M  V30 8087 H  -39.3646 16.9617 -17.9176 0
M  V30 8088 H  -41.3308 14.6894 -18.4185 0
M  V30 8089 H  -39.7898 15.6855 -20.3312 0
M  V30 8090 H  -40.9553 16.9659 -20.3383 0
M  V30 8091 H  -43.1416 16.3967 -18.7829 0
M  V30 8092 H  -42.6138 16.3418 -17.1250 0
M  V30 8093 H  -42.0644 17.6471 -18.1741 0
M  V30 8094 H  -41.8766 15.4850 -21.9242 0
M  V30 8095 H  -41.2578 14.0550 -21.1054 0
M  V30 8096 H  -42.6966 14.8658 -20.4979 0
M  V30 8097 H  -40.2757 17.9072 -16.1104 0
M  V30 8098 H  -41.3372 16.2661 -13.8869 0
M  V30 8099 H  -39.2439 18.4567 -13.3919 0
M  V30 8100 H  -38.8041 16.7886 -13.6070 0
M  V30 8101 H  -39.0215 16.2884 -10.1669 0
M  V30 8102 H  -38.0431 16.2768 -11.6116 0
M  V30 8103 H  -43.3329 16.8620 -14.6133 0
M  V30 8104 H  -44.1044 19.5232 -15.1370 0
M  V30 8105 H  -46.4120 18.7225 -15.0274 0
M  V30 8106 H  -45.9233 17.2035 -14.3398 0
M  V30 8107 H  -44.6711 16.6433 -16.3179 0
M  V30 8108 H  -44.9710 18.1798 -17.0838 0
M  V30 8109 H  -47.5954 17.3006 -16.6289 0
M  V30 8110 H  -46.7416 15.7890 -16.5873 0
M  V30 8111 H  -46.1054 15.7947 -18.7296 0
M  V30 8112 H  -48.0396 19.2243 -19.7811 0
M  V30 8113 H  -47.8682 18.8400 -18.0893 0
M  V30 8114 H  -47.1803 17.8014 -21.3836 0
M  V30 8115 H  -46.3616 16.3370 -20.9206 0
M  V30 8116 H  -45.6046 19.7996 -10.5741 0
M  V30 8117 H  -45.0751 18.4213 -8.7084 0
M  V30 8118 H  -43.4537 18.0848 -9.3199 0
M  V30 8119 H  -46.0642 17.0313 -10.4138 0
M  V30 8120 H  -44.6630 16.0923 -9.9085 0
M  V30 8121 H  -43.3625 16.9389 -11.7974 0
M  V30 8122 H  -44.9534 16.6865 -12.4957 0
M  V30 8123 H  -42.0604 19.5613 -11.3566 0
M  V30 8124 H  -41.3100 21.8103 -9.7427 0
M  V30 8125 H  -39.3136 21.8606 -11.3856 0
M  V30 8126 H  -39.9737 20.4075 -12.0806 0
M  V30 8127 H  -39.7486 19.2449 -9.8670 0
M  V30 8128 H  -39.2857 20.7345 -9.1128 0
M  V30 8129 H  -36.0266 19.2670 -9.5007 0
M  V30 8130 H  -37.3901 19.4001 -8.4248 0
M  V30 8131 H  -42.4324 21.5463 -13.1401 0
M  V30 8132 H  -42.1543 24.3533 -13.7185 0
M  V30 8133 H  -43.7710 22.1218 -14.9939 0
M  V30 8134 H  -41.2126 22.1904 -15.1611 0
M  V30 8135 H  -41.3796 23.6419 -16.0965 0
M  V30 8136 H  -44.2130 23.6563 -16.9509 0
M  V30 8137 H  -45.0587 24.1658 -15.5273 0
M  V30 8138 H  -43.5825 24.9964 -16.0109 0
M  V30 8139 H  -41.1367 21.6952 -17.5742 0
M  V30 8140 H  -42.4985 20.8721 -16.8187 0
M  V30 8141 H  -42.7409 22.3195 -17.7991 0
M  V30 8142 H  -44.6601 22.3880 -12.1487 0
M  V30 8143 H  -46.6141 22.9223 -11.1009 0
M  V30 8144 H  -46.7749 24.3325 -12.1377 0
M  V30 8145 H  -44.0181 23.5954 -9.9089 0
M  V30 8146 H  -44.7209 25.4941 -7.8865 0
M  V30 8147 H  -42.2121 23.9695 -8.6240 0
M  V30 8148 H  -41.0602 24.7980 -6.5830 0
M  V30 8149 H  -41.2144 26.0477 -7.7942 0
M  V30 8150 H  -42.2949 26.0418 -6.3995 0
M  V30 8151 H  -42.5607 22.9188 -6.4142 0
M  V30 8152 H  -43.9556 23.9459 -6.1261 0
M  V30 8153 H  -43.9947 22.7503 -7.4149 0
M  V30 8154 H  -42.7180 25.7174 -10.8696 0
M  V30 8155 H  -41.8670 28.4137 -10.4732 0
M  V30 8156 H  -42.1498 26.7143 -12.9817 0
M  V30 8157 H  -40.6551 28.4628 -14.1044 0
M  V30 8158 H  -42.3233 28.9366 -13.8973 0
M  V30 8159 H  -41.1114 29.5691 -12.8064 0
M  V30 8160 H  -39.6848 26.6284 -12.9013 0
M  V30 8161 H  -39.6879 27.5769 -11.4168 0
M  V30 8162 H  -40.3817 25.9752 -11.4354 0
M  V30 8163 H  -44.7264 26.9857 -12.1366 0
M  V30 8164 H  -45.8334 29.3336 -13.1979 0
M  V30 8165 H  -47.2196 26.8315 -12.1499 0
M  V30 8166 H  -46.4969 26.9479 -13.7121 0
M  V30 8167 H  -48.3301 27.9854 -14.6520 0
M  V30 8168 H  -48.3611 29.1396 -13.3799 0
M  V30 8169 H  -50.4411 27.7937 -13.5940 0
M  V30 8170 H  -49.8314 27.9182 -11.9776 0
M  V30 8171 H  -49.7020 25.6190 -13.9340 0
M  V30 8172 H  -49.6226 24.8846 -9.9290 0
M  V30 8173 H  -49.6379 26.5381 -10.4547 0
M  V30 8174 H  -49.6961 23.1685 -11.4591 0
M  V30 8175 H  -49.7185 23.4963 -13.1696 0
M  V30 8176 H  -46.3643 27.7561 -10.0074 0
M  V30 8177 H  -48.2067 29.6751 -9.0299 0
M  V30 8178 H  -46.4320 27.8966 -7.3081 0
M  V30 8179 H  -47.6277 27.1584 -8.3104 0
M  V30 8180 H  -48.2242 29.3308 -6.2558 0
M  V30 8181 H  -48.3453 27.6214 -5.9146 0
M  V30 8182 H  -44.6632 29.5682 -9.0290 0
M  V30 8183 H  -44.2835 31.7898 -7.2190 0
M  V30 8184 H  -42.4826 30.2860 -9.1330 0
M  V30 8185 H  -42.5296 30.1819 -7.4059 0
M  V30 8186 H  -41.4428 32.2704 -10.2780 0
M  V30 8187 H  -41.3570 31.8508 -5.9838 0
M  V30 8188 H  -39.6594 33.9374 -10.1223 0
M  V30 8189 H  -39.5545 33.5032 -5.8676 0
M  V30 8190 H  -38.6958 34.5463 -7.9250 0
M  V30 8191 H  -44.5340 31.5377 -10.7968 0
M  V30 8192 H  -43.9221 34.2476 -11.3170 0
M  V30 8193 H  -45.2855 33.7155 -13.5006 0
M  V30 8194 H  -45.4860 32.1233 -12.8381 0
M  V30 8195 H  -42.9709 31.9058 -12.7663 0
M  V30 8196 H  -43.1139 30.9111 -14.7835 0
M  V30 8197 H  -44.7108 31.6027 -14.9585 0
M  V30 8198 H  -43.3321 32.4256 -15.6457 0
M  V30 8199 H  -42.0420 33.8509 -14.5826 0
M  V30 8200 H  -43.0258 34.7596 -13.4514 0
M  V30 8201 H  -41.7061 33.7591 -12.8677 0
M  V30 8202 H  -47.0240 32.7825 -10.3159 0
M  V30 8203 H  -48.6324 35.0853 -10.9298 0
M  V30 8204 H  -50.3364 34.1444 -9.5257 0
M  V30 8205 H  -50.7219 31.9442 -10.5201 0
M  V30 8206 H  -50.1203 33.0666 -11.7333 0
M  V30 8207 H  -49.0546 31.8477 -11.0531 0
M  V30 8208 H  -48.5305 32.1872 -8.6132 0
M  V30 8209 H  -46.7224 34.1523 -8.0406 0
M  V30 8210 H  -47.5899 36.5574 -6.5703 0
M  V30 8211 H  -45.9699 35.5522 -4.8461 0
M  V30 8212 H  -45.8354 34.1484 -5.8729 0
M  V30 8213 H  -48.2525 33.7829 -5.7080 0
M  V30 8214 H  -48.5342 35.2893 -4.8947 0
M  V30 8215 H  -48.5221 34.0029 -2.9657 0
M  V30 8216 H  -46.8032 34.1815 -3.1168 0
M  V30 8217 H  -46.4349 32.0699 -3.5684 0
M  V30 8218 H  -50.2560 30.8499 -4.2754 0
M  V30 8219 H  -49.9184 32.5598 -4.2301 0
M  V30 8220 H  -48.5999 29.3351 -3.8329 0
M  V30 8221 H  -46.9752 29.8578 -3.4749 0
M  V30 8222 H  -45.1568 35.8525 -8.8769 0
M  V30 8223 H  -43.6167 38.2969 -8.1167 0
M  V30 8224 H  -41.5361 37.1332 -8.6208 0
M  V30 8225 H  -42.3577 35.6262 -8.9149 0
M  V30 8226 H  -42.6581 34.7915 -5.4655 0
M  V30 8227 H  -43.1127 34.4045 -7.1117 0
M  V30 8228 H  -45.1677 38.1171 -12.5301 0
M  V30 8229 H  -47.0622 39.3259 -12.0430 0
M  V30 8230 H  -46.1738 40.6996 -12.6797 0
M  V30 8231 H  -47.1431 40.8667 -10.1880 0
M  V30 8232 H  -45.4630 41.3355 -10.4551 0
M  V30 8233 H  -45.1948 39.7127 -8.7450 0
M  V30 8234 H  -46.4683 38.6751 -9.4012 0
M  V30 8235 H  -42.9068 40.2573 -10.8775 0
M  V30 8236 H  -41.7387 41.5520 -13.1255 0
M  V30 8237 H  -39.8445 41.9328 -11.5259 0
M  V30 8238 H  -41.3960 42.2929 -10.7844 0
M  V30 8239 H  -40.5643 40.7885 -10.3969 0
M  V30 8240 H  -41.5523 38.2442 -12.0512 0
M  V30 8241 H  -39.0402 37.6089 -13.4387 0
M  V30 8242 H  -39.6079 35.3099 -12.5141 0
M  V30 8243 H  -41.0084 35.9836 -11.7590 0
M  V30 8244 H  -40.2180 38.2465 -10.0506 0
M  V30 8245 H  -37.4556 34.4186 -12.0049 0
M  V30 8246 H  -38.3289 38.2220 -8.3275 0
M  V30 8247 H  -35.9059 36.6861 -7.8437 0
M  V30 8248 H  -35.3720 33.6990 -10.9099 0
M  V30 8249 H  -34.6184 34.8091 -8.8024 0
M  V30 8250 H  -42.0842 38.1646 -14.6537 0
M  V30 8251 H  -42.2455 35.8461 -16.4128 0
M  V30 8252 H  -44.0541 37.2357 -17.4947 0
M  V30 8253 H  -43.7597 38.4844 -16.3109 0
M  V30 8254 H  -44.2116 36.8113 -14.5070 0
M  V30 8255 H  -44.4937 35.5478 -15.6662 0
M  V30 8256 H  -46.3895 37.3876 -16.5156 0
M  V30 8257 H  -46.1283 37.9530 -14.8847 0
M  V30 8258 H  -46.7377 35.1070 -15.3040 0
M  V30 8259 H  -49.3920 35.0737 -13.1004 0
M  V30 8260 H  -48.3700 34.1397 -14.1556 0
M  V30 8261 H  -49.0545 37.3402 -12.8340 0
M  V30 8262 H  -47.7951 38.1433 -13.7329 0
M  V30 8263 H  -40.1987 38.5809 -16.4262 0
M  V30 8264 H  -39.6324 38.3936 -19.3163 0
M  V30 8265 H  -39.5283 40.5969 -18.1592 0
M  V30 8266 H  -38.0496 40.1334 -18.9465 0
M  V30 8267 H  -37.0568 39.4318 -16.7525 0
M  V30 8268 H  -38.5264 39.8780 -15.9582 0
M  V30 8269 H  -37.6412 42.1606 -17.5254 0
M  V30 8270 H  -36.2436 41.4989 -16.7264 0
M  V30 8271 H  -37.5980 41.5853 -14.5198 0
M  V30 8272 H  -38.8271 42.4711 -15.3917 0
M  V30 8273 H  -37.1677 44.1318 -15.8951 0
M  V30 8274 H  -37.2979 43.9072 -14.2665 0
M  V30 8275 H  -36.0135 43.2770 -15.0897 0
M  V30 8276 H  -39.0023 36.3697 -16.6950 0
M  V30 8277 H  -36.2019 35.9301 -17.0228 0
M  V30 8278 H  -36.5466 34.0479 -15.4921 0
M  V30 8279 H  -37.5406 35.3766 -14.9216 0
M  V30 8280 H  -38.2782 34.0365 -15.7952 0
M  V30 8281 H  -35.0851 34.1872 -17.8556 0
M  V30 8282 H  -36.3681 32.6832 -20.0627 0
M  V30 8283 H  -33.4639 33.0795 -19.2142 0
M  V30 8284 H  -32.8036 31.8352 -21.2830 0
M  V30 8285 H  -33.5438 30.7871 -20.1016 0
M  V30 8286 H  -34.4687 31.3226 -21.5021 0
M  V30 8287 H  -33.3211 34.1451 -21.5126 0
M  V30 8288 H  -35.0515 34.0479 -21.6280 0
M  V30 8289 H  -34.3170 35.0349 -20.3681 0
M  V30 8290 H  -37.0458 30.6484 -19.6952 0
M  V30 8291 H  -36.5151 29.2712 -17.1967 0
M  V30 8292 H  -37.8742 28.3704 -19.7593 0
M  V30 8293 H  -38.6822 29.1315 -18.4251 0
M  V30 8294 H  -38.9932 27.9456 -16.2479 0
M  V30 8295 H  -37.1204 25.9954 -19.6122 0
M  V30 8296 H  -39.3272 25.7510 -15.1879 0
M  V30 8297 H  -37.4273 23.8205 -18.4961 0
M  V30 8298 H  -38.5705 23.6966 -16.3189 0
M  V30 8299 H  -34.9678 27.6731 -16.8478 0
M  V30 8300 H  -33.4989 26.5975 -19.1780 0
M  V30 8301 H  -32.1533 27.5924 -16.6318 0
M  V30 8302 H  -32.7339 29.4864 -18.0868 0
M  V30 8303 H  -32.0820 28.6720 -19.4749 0
M  V30 8304 H  -29.9967 26.9383 -17.7307 0
M  V30 8305 H  -31.0089 25.5463 -17.5150 0
M  V30 8306 H  -30.8864 26.2908 -19.1039 0
M  V30 8307 H  -30.6814 30.5626 -18.2796 0
M  V30 8308 H  -30.2258 29.2919 -17.1501 0
M  V30 8309 H  -29.8518 29.1263 -18.8644 0
M  V30 8310 H  -32.8692 24.4587 -19.0086 0
M  V30 8311 H  -32.8690 23.1594 -16.5007 0
M  V30 8312 H  -35.3881 23.0494 -17.0684 0
M  V30 8313 H  -34.6201 21.5140 -16.7774 0
M  V30 8314 H  -35.2423 22.6234 -19.2868 0
M  V30 8315 H  -29.9756 20.6866 -18.7773 0
M  V30 8316 H  -29.2867 18.9071 -17.3932 0
M  V30 8317 H  -30.8959 18.2144 -17.3375 0
M  V30 8318 H  -29.8503 20.5649 -15.7676 0
M  V30 8319 H  -30.7552 19.1837 -15.1529 0
M  V30 8320 H  -32.7945 19.9714 -16.2510 0
M  V30 8321 H  -32.0431 21.4341 -15.6005 0
M  V30 8322 H  -33.3348 20.0346 -19.2040 0
M  V30 8323 H  -32.8669 17.9577 -21.3053 0
M  V30 8324 H  -35.0946 17.0630 -20.4892 0
M  V30 8325 H  -35.0705 18.2160 -19.2024 0
M  V30 8326 H  -33.8527 17.8231 -17.2153 0
M  V30 8327 H  -33.1552 15.3252 -20.6538 0
M  V30 8328 H  -32.5293 16.2678 -15.8077 0
M  V30 8329 H  -31.8110 13.7758 -19.2599 0
M  V30 8330 H  -31.4794 14.2315 -15.7314 0
M  V30 8331 H  -33.7721 18.2736 -23.2349 0
M  V30 8332 H  -35.0371 20.7324 -23.9271 0
M  V30 8333 H  -33.6067 19.4548 -25.4876 0
M  V30 8334 H  -35.1683 19.8126 -26.1626 0
M  V30 8335 H  -36.0533 16.4441 -26.7525 0
M  V30 8336 H  -36.4874 18.1274 -26.8811 0
M  V30 8337 H  -36.4004 17.5019 -23.1037 0
M  V30 8338 H  -39.0414 18.1998 -24.0385 0
M  V30 8339 H  -39.6739 16.0691 -22.8027 0
M  V30 8340 H  -37.9908 15.8868 -22.3506 0
M  V30 8341 H  -38.7613 14.8766 -24.3823 0
M  V30 8342 H  -37.3698 18.5236 -20.9041 0
M  V30 8343 H  -39.6703 19.3278 -19.4174 0
M  V30 8344 H  -36.6974 19.8840 -19.0995 0
M  V30 8345 H  -37.5828 18.6303 -18.3044 0
M  V30 8346 H  -38.0798 21.6230 -17.7776 0
M  V30 8347 H  -36.9722 20.6503 -16.8865 0
M  V30 8348 H  -39.6952 20.3369 -14.6131 0
M  V30 8349 H  -38.2156 21.2012 -14.9594 0
M  V30 8350 H  -37.2706 21.1222 -21.3974 0
M  V30 8351 H  -38.3090 23.7097 -20.9870 0
M  V30 8352 H  -37.0792 24.2062 -23.1747 0
M  V30 8353 H  -36.7279 22.5177 -23.3239 0
M  V30 8354 H  -33.6494 23.4713 -21.8593 0
M  V30 8355 H  -34.4847 22.9917 -23.3146 0
M  V30 8356 H  -39.1585 21.1921 -23.4507 0
M  V30 8357 H  -40.8513 22.7976 -25.0347 0
M  V30 8358 H  -41.6987 20.6225 -25.8890 0
M  V30 8359 H  -39.9488 20.5930 -25.7420 0
M  V30 8360 H  -40.9428 19.7746 -24.5438 0
M  V30 8361 H  -41.5821 20.8020 -22.1451 0
M  V30 8362 H  -44.4072 21.3272 -22.1335 0
M  V30 8363 H  -42.4793 20.2904 -20.0095 0
M  V30 8364 H  -44.5029 19.4342 -18.8004 0
M  V30 8365 H  -44.4125 21.1770 -18.7459 0
M  V30 8366 H  -45.5233 20.3946 -19.8633 0
M  V30 8367 H  -43.4506 18.0811 -20.5229 0
M  V30 8368 H  -44.5363 18.8032 -21.7060 0
M  V30 8369 H  -42.8118 18.7809 -21.9967 0
M  V30 8370 H  -41.5820 22.8251 -20.4991 0
M  V30 8371 H  -43.0072 24.6517 -18.8568 0
M  V30 8372 H  -40.7421 25.7291 -18.6692 0
M  V30 8373 H  -40.6675 23.9910 -18.4445 0
M  V30 8374 H  -40.1586 24.7087 -19.9679 0
M  V30 8375 H  -41.8526 24.9002 -22.2392 0
M  V30 8376 H  -42.2540 27.6756 -22.5845 0
M  V30 8377 H  -42.3455 25.4049 -24.6394 0
M  V30 8378 H  -40.8984 26.2266 -24.1123 0
M  V30 8379 H  -41.6985 28.1437 -24.9723 0
M  V30 8380 H  -44.5020 24.8905 -22.9911 0
M  V30 8381 H  -46.6553 26.5206 -24.0014 0
M  V30 8382 H  -45.8680 25.1394 -20.7495 0
M  V30 8383 H  -48.3693 26.0285 -19.6331 0
M  V30 8384 H  -45.8904 24.8240 -18.3718 0
M  V30 8385 H  -47.2883 23.3788 -19.9105 0
M  V30 8386 H  -48.6571 23.6549 -18.8810 0
M  V30 8387 H  -47.2722 24.4263 -16.2925 0
M  V30 8388 H  -46.9878 26.1194 -16.5478 0
M  V30 8389 H  -48.5466 25.4265 -16.9679 0
M  V30 8390 H  -47.2217 21.4616 -18.5976 0
M  V30 8391 H  -46.1266 22.4741 -17.6670 0
M  V30 8392 H  -47.7999 22.2703 -17.1513 0
M  V30 8393 H  -45.0111 27.3454 -19.4839 0
M  V30 8394 H  -45.9011 29.4610 -17.6116 0
M  V30 8395 H  -43.5384 29.9363 -17.3538 0
M  V30 8396 H  -43.1069 28.9147 -18.6875 0
M  V30 8397 H  -43.9206 26.9123 -17.3882 0
M  V30 8398 H  -41.9839 26.9756 -15.7260 0
M  V30 8399 H  -41.5866 27.3111 -17.4023 0
M  V30 8400 H  -41.6969 28.6344 -16.2634 0
M  V30 8401 H  -43.9814 27.6257 -14.7376 0
M  V30 8402 H  -44.7838 29.0181 -15.4490 0
M  V30 8403 H  -45.4042 27.4006 -15.7234 0
M  V30 8404 H  -44.9577 29.0546 -21.0166 0
M  V30 8405 H  -45.6929 31.7959 -21.6913 0
M  V30 8406 H  -45.1287 30.5458 -22.7707 0
M  V30 8407 H  -42.8634 30.6260 -20.2476 0
M  V30 8408 H  -41.3434 32.9299 -20.9170 0
M  V30 8409 H  -39.5476 31.6940 -19.5485 0
M  V30 8410 H  -40.6108 30.3195 -19.4842 0
M  V30 8411 H  -42.2623 31.6351 -18.2118 0
M  V30 8412 H  -41.2281 31.2561 -16.1822 0
M  V30 8413 H  -40.0886 30.4137 -17.2037 0
M  V30 8414 H  -39.7197 32.0329 -16.6477 0
M  V30 8415 H  -40.8277 33.9160 -17.2723 0
M  V30 8416 H  -40.7338 33.9812 -19.0167 0
M  V30 8417 H  -42.2961 33.8809 -18.2275 0
M  V30 8418 H  -38.9420 31.1725 -24.4066 0
M  V30 8419 H  -38.2559 33.3423 -24.8663 0
M  V30 8420 H  -36.7036 32.7806 -24.2642 0
M  V30 8421 H  -37.7976 34.9393 -23.0927 0
M  V30 8422 H  -37.1612 33.6593 -22.0634 0
M  V30 8423 H  -39.3135 33.7517 -21.1965 0
M  V30 8424 H  -40.0557 34.1344 -22.7575 0
M  V30 8425 H  -37.5960 29.3896 -24.4818 0
M  V30 8426 H  -36.3441 28.5958 -21.9049 0
M  V30 8427 H  -36.8915 26.3770 -22.3742 0
M  V30 8428 H  -39.2768 26.3635 -22.2856 0
M  V30 8429 H  -38.8270 27.9033 -21.6083 0
M  V30 8430 H  -39.4148 27.8267 -23.2532 0
M  V30 8431 H  -36.5249 26.3205 -24.6067 0
M  V30 8432 H  -34.4546 27.4848 -21.8407 0
M  V30 8433 H  -32.8215 27.0477 -24.2752 0
M  V30 8434 H  -30.8513 27.8967 -22.8629 0
M  V30 8435 H  -31.9859 28.5042 -21.7034 0
M  V30 8436 H  -31.2992 30.3536 -22.9945 0
M  V30 8437 H  -32.9350 30.0487 -23.4949 0
M  V30 8438 H  -31.7475 30.2626 -26.8393 0
M  V30 8439 H  -32.8541 30.8374 -25.6199 0
M  V30 8440 H  -31.5288 25.1819 -24.0656 0
M  V30 8441 H  -31.6836 23.5949 -21.5771 0
M  V30 8442 H  -30.1298 22.0655 -22.6284 0
M  V30 8443 H  -31.4374 21.2361 -24.5576 0
M  V30 8444 H  -32.4703 21.6435 -23.1993 0
M  V30 8445 H  -32.3720 22.7271 -24.5889 0
M  V30 8446 H  -30.0525 23.8010 -24.8401 0
M  V30 8447 H  -29.6056 23.1967 -20.3491 0
M  V30 8448 H  -28.2645 25.6044 -19.7548 0
M  V30 8449 H  -27.2688 22.7739 -19.2166 0
M  V30 8450 H  -26.2558 23.9239 -17.2053 0
M  V30 8451 H  -25.4506 24.3307 -18.7062 0
M  V30 8452 H  -26.5732 25.4705 -17.9615 0
M  V30 8453 H  -28.3738 22.9119 -17.0296 0
M  V30 8454 H  -29.0108 24.5030 -17.4138 0
M  V30 8455 H  -29.5647 23.0823 -18.2948 0
M  V30 8456 H  -27.3637 22.9213 -21.9182 0
M  V30 8457 H  -24.7599 23.7998 -22.5940 0
M  V30 8458 H  -24.9008 22.1907 -24.4770 0
M  V30 8459 H  -26.6138 21.9948 -24.1982 0
M  V30 8460 H  -27.9346 24.4928 -24.1253 0
M  V30 8461 H  -26.6867 26.0703 -26.2156 0
M  V30 8462 H  -28.8025 24.7631 -26.5518 0
M  V30 8463 H  -28.8799 26.4344 -27.0455 0
M  V30 8464 H  -30.0530 26.9501 -25.2613 0
M  V30 8465 H  -27.6826 26.7511 -22.9283 0
M  V30 8466 H  -27.9820 29.5931 -23.3082 0
M  V30 8467 H  -29.1137 28.1852 -21.4791 0
M  V30 8468 H  -28.4345 29.7171 -21.0245 0
M  V30 8469 H  -27.1332 27.2337 -20.6506 0
M  V30 8470 H  -25.1638 27.5434 -22.9947 0
M  V30 8471 H  -23.4175 29.2559 -21.6411 0
M  V30 8472 H  -22.8608 27.1140 -23.7267 0
M  V30 8473 H  -22.9355 26.9261 -22.0002 0
M  V30 8474 H  -20.9658 28.6625 -21.8978 0
M  V30 8475 H  -20.7906 28.4041 -23.6176 0
M  V30 8476 H  -18.6901 25.6209 -22.9887 0
M  V30 8477 H  -19.1152 26.9725 -24.0124 0
M  V30 8478 H  -22.1764 30.9212 -22.1436 0
M  V30 8479 H  -21.8857 32.0413 -24.8558 0
M  V30 8480 H  -21.1049 32.5602 -23.3792 0
M  V30 8481 H  -24.6418 32.1098 -23.1986 0
M  V30 8482 H  -25.2124 34.9382 -23.8525 0
M  V30 8483 H  -27.5867 34.1301 -23.6427 0
M  V30 8484 H  -27.0126 32.5288 -23.2483 0
M  V30 8485 H  -26.0287 32.4567 -25.2905 0
M  V30 8486 H  -26.8257 36.1160 -22.4478 0
M  V30 8487 H  -26.7913 35.4364 -19.6089 0
M  V30 8488 H  -24.7374 36.7867 -19.9682 0
M  V30 8489 H  -25.8641 37.5192 -18.8616 0
M  V30 8490 H  -26.6409 39.0411 -20.7885 0
M  V30 8491 H  -25.4003 38.3315 -21.7833 0
M  V30 8492 H  -28.4565 36.3592 -18.4380 0
M  V30 8493 H  -30.5778 37.8915 -19.8522 0
M  V30 8494 H  -32.2451 36.2227 -19.2469 0
M  V30 8495 H  -31.1375 35.3704 -18.2153 0
M  V30 8496 H  -31.3977 36.3010 -21.8724 0
M  V30 8497 H  -30.2357 33.3581 -18.9366 0
M  V30 8498 H  -30.7428 34.7455 -23.6868 0
M  V30 8499 H  -29.5757 31.8081 -20.7496 0
M  V30 8500 H  -29.8389 32.6920 -24.2181 0
M  V30 8501 H  -31.9794 39.0472 -18.3142 0
M  V30 8502 H  -30.7599 39.8063 -15.8505 0
M  V30 8503 H  -33.0073 40.8575 -15.2889 0
M  V30 8504 H  -33.6080 40.2296 -16.8056 0
M  V30 8505 H  -33.6738 37.7878 -16.3961 0
M  V30 8506 H  -33.1977 36.5558 -13.7208 0
M  V30 8507 H  -35.6643 36.1013 -13.7727 0
M  V30 8508 H  -35.8033 37.1441 -15.1696 0
M  V30 8509 H  -35.1895 36.9626 -11.5471 0
M  V30 8510 H  -35.4192 39.6038 -14.9475 0
M  V30 8511 H  -35.4480 38.8910 -10.0225 0
M  V30 8512 H  -35.5991 41.5470 -13.4127 0
M  V30 8513 H  -35.7871 41.1690 -9.8692 0
M  V30 8514 H  -33.2266 34.4158 -13.5411 0
M  V30 8515 H  -33.6166 32.7198 -15.9530 0
M  V30 8516 H  -31.4661 32.5613 -13.7942 0
M  V30 8517 H  -30.6310 30.4822 -14.9692 0
M  V30 8518 H  -32.1326 30.2358 -14.1119 0
M  V30 8519 H  -32.1491 30.4267 -15.8621 0
M  V30 8520 H  -29.8630 32.7065 -15.6108 0
M  V30 8521 H  -31.1484 32.7521 -16.8202 0
M  V30 8522 H  -30.9263 34.0916 -15.6984 0
M  V30 8523 H  -34.9219 30.9070 -15.5204 0
M  V30 8524 H  -35.3994 30.2420 -12.6421 0
M  V30 8525 H  -37.5227 30.1242 -14.8097 0
M  V30 8526 H  -37.1324 32.4265 -13.8785 0
M  V30 8527 H  -37.3849 31.8191 -12.2761 0
M  V30 8528 H  -38.9328 29.3689 -12.7823 0
M  V30 8529 H  -37.7948 28.1757 -13.3607 0
M  V30 8530 H  -37.4428 29.1198 -11.9157 0
M  V30 8531 H  -39.3523 32.9592 -13.7897 0
M  V30 8532 H  -39.6255 31.2749 -14.2146 0
M  V30 8533 H  -39.6953 31.7825 -12.5299 0
M  V30 8534 H  -34.0373 28.6520 -12.4345 0
M  V30 8535 H  -33.7042 26.6100 -14.4939 0
M  V30 8536 H  -32.2348 27.1736 -11.9113 0
M  V30 8537 H  -31.7218 27.5706 -13.5249 0
M  V30 8538 H  -31.3936 25.6423 -15.2343 0
M  V30 8539 H  -31.6743 24.9902 -10.9793 0
M  V30 8540 H  -30.3190 23.4384 -15.4834 0
M  V30 8541 H  -30.5667 22.8117 -11.2632 0
M  V30 8542 H  -29.8847 22.0405 -13.5004 0
M  V30 8543 H  -34.6709 24.6160 -14.3735 0
M  V30 8544 H  -35.5203 23.5875 -11.7018 0
M  V30 8545 H  -37.2329 22.2498 -12.7290 0
M  V30 8546 H  -38.9178 23.9132 -13.4278 0
M  V30 8547 H  -38.0280 24.4633 -12.0169 0
M  V30 8548 H  -37.6574 25.1353 -13.5962 0
M  V30 8549 H  -36.2104 22.0751 -14.7908 0
M  V30 8550 H  -34.2871 21.8689 -11.1367 0
M  V30 8551 H  -32.2233 20.9761 -12.9065 0
M  V30 8552 H  -33.0358 19.8040 -10.2153 0
M  V30 8553 H  -32.0916 21.2585 -10.3918 0
M  V30 8554 H  -30.3557 19.9833 -11.7128 0
M  V30 8555 H  -31.2421 18.5045 -11.4234 0
M  V30 8556 H  -28.4673 18.8165 -8.9240 0
M  V30 8557 H  -28.5375 18.9185 -10.6645 0
M  V30 8558 H  -35.3994 19.7061 -12.1690 0
M  V30 8559 H  -36.7017 18.2679 -13.1714 0
M  V30 8560 H  -34.5242 17.4836 -15.1308 0
M  V30 8561 H  -36.3732 17.1050 -16.7183 0
M  V30 8562 H  -36.6162 16.0843 -15.3140 0
M  V30 8563 H  -37.5559 17.5617 -15.5047 0
M  V30 8564 H  -34.7705 19.7239 -15.0647 0
M  V30 8565 H  -33.4252 16.8479 -12.7563 0
M  V30 8566 H  -34.5696 14.4188 -11.5080 0
M  V30 8567 H  -33.1989 12.9594 -12.8930 0
M  V30 8568 H  -34.2284 13.0191 -15.0623 0
M  V30 8569 H  -35.4356 13.5505 -13.8970 0
M  V30 8570 H  -34.6202 14.7249 -14.9191 0
M  V30 8571 H  -31.5106 14.5336 -13.3016 0
M  V30 8572 H  -32.5728 12.9900 -10.7810 0
M  V30 8573 H  -30.3879 14.7005 -9.6724 0
M  V30 8574 H  -30.2118 13.0322 -7.8643 0
M  V30 8575 H  -31.5332 12.1156 -8.5375 0
M  V30 8576 H  -33.0857 13.9896 -8.0920 0
M  V30 8577 H  -31.7563 14.9809 -7.5168 0
M  V30 8578 H  -30.6242 13.1454 -12.3643 0
M  V30 8579 H  -28.7366 10.9993 -12.2739 0
M  V30 8580 H  -28.6418 11.2856 -14.7033 0
M  V30 8581 H  -31.0030 11.1051 -15.3643 0
M  V30 8582 H  -30.6838 10.1755 -13.9059 0
M  V30 8583 H  -31.5210 11.7154 -13.8002 0
M  V30 8584 H  -29.8344 13.0370 -15.6560 0
M  V30 8585 H  -26.5820 11.0237 -13.3174 0
M  V30 8586 H  -24.7721 12.9290 -12.3316 0
M  V30 8587 H  -23.1470 11.7474 -13.8271 0
M  V30 8588 H  -24.1535 10.6128 -12.9404 0
M  V30 8589 H  -24.4828 10.9361 -14.6410 0
M  V30 8590 H  -26.6554 12.9971 -15.3107 0
M  V30 8591 H  -25.1831 15.0120 -16.7139 0
M  V30 8592 H  -28.0450 13.9749 -16.9035 0
M  V30 8593 H  -26.6864 13.5059 -17.8816 0
M  V30 8594 H  -29.5115 16.1997 -17.7820 0
M  V30 8595 H  -26.9630 17.1562 -20.9882 0
M  V30 8596 H  -28.2862 15.2200 -14.8280 0
M  V30 8597 H  -28.3732 18.0623 -14.8935 0
M  V30 8598 H  -30.3622 16.5761 -14.7005 0
M  V30 8599 H  -30.3002 17.7747 -13.4258 0
M  V30 8600 H  -30.2627 16.2587 -12.0358 0
M  V30 8601 H  -26.7780 15.8456 -12.6848 0
M  V30 8602 H  -26.3589 17.8809 -10.6208 0
M  V30 8603 H  -25.2139 15.9564 -9.4110 0
M  V30 8604 H  -25.6049 14.9178 -10.7700 0
M  V30 8605 H  -27.4120 16.5037 -8.5604 0
M  V30 8606 H  -24.7738 17.1467 -13.5179 0
M  V30 8607 H  -22.0479 17.1463 -12.8259 0
M  V30 8608 H  -23.4412 18.2601 -15.3161 0
M  V30 8609 H  -23.0209 16.5901 -15.0844 0
M  V30 8610 H  -19.4990 16.9942 -15.6629 0
M  V30 8611 H  -20.6499 16.0301 -14.7788 0
M  V30 8612 H  -20.7833 18.6653 -11.8887 0
M  V30 8613 H  -21.8764 21.1276 -11.0505 0
M  V30 8614 H  -19.6859 21.6092 -10.0939 0
M  V30 8615 H  -19.5485 19.7359 -8.5304 0
M  V30 8616 H  -21.2233 20.1524 -8.8596 0
M  V30 8617 H  -20.5093 18.7240 -9.6028 0
M  V30 8618 H  -17.7754 20.0214 -10.2591 0
M  V30 8619 H  -18.5972 19.1674 -11.5585 0
M  V30 8620 H  -18.0848 20.8390 -11.7742 0
M  V30 8621 H  -20.0000 20.4019 -13.9628 0
M  V30 8622 H  -19.2754 23.1187 -14.4806 0
M  V30 8623 H  -18.9540 22.2103 -16.8818 0
M  V30 8624 H  -19.3927 20.6396 -16.2867 0
M  V30 8625 H  -15.6384 21.3660 -16.3848 0
M  V30 8626 H  -16.9273 21.6919 -17.5069 0
M  V30 8627 H  -21.9661 20.9496 -15.4047 0
M  V30 8628 H  -23.3340 22.7803 -17.1159 0
M  V30 8629 H  -24.4107 20.3921 -15.5380 0
M  V30 8630 H  -23.6298 20.3014 -17.0837 0
M  V30 8631 H  -25.4091 21.8938 -17.9466 0
M  V30 8632 H  -26.3054 21.6934 -16.4687 0
M  V30 8633 H  -27.3262 20.1430 -17.9630 0
M  V30 8634 H  -26.2471 19.1436 -17.0487 0
M  V30 8635 H  -25.8159 20.0274 -19.8255 0
M  V30 8636 H  -23.5129 17.0628 -18.2877 0
M  V30 8637 H  -24.6593 17.8391 -17.2251 0
M  V30 8638 H  -23.3831 17.6665 -20.4951 0
M  V30 8639 H  -24.3391 18.9869 -21.1149 0
M  V30 8640 H  -23.7043 21.9298 -13.6179 0
M  V30 8641 H  -25.7725 23.7644 -13.1474 0
M  V30 8642 H  -23.7940 22.5686 -11.1484 0
M  V30 8643 H  -25.2285 21.7871 -11.7606 0
M  V30 8644 H  -27.5037 23.0492 -11.5660 0
M  V30 8645 H  -24.0303 23.9771 -9.1753 0
M  V30 8646 H  -28.9109 24.2605 -9.9548 0
M  V30 8647 H  -25.4783 25.0997 -7.5427 0
M  V30 8648 H  -27.9166 25.2575 -7.9476 0
M  V30 8649 H  -22.2361 24.2585 -13.0023 0
M  V30 8650 H  -22.2047 26.8416 -11.9499 0
M  V30 8651 H  -20.3533 25.3118 -13.8072 0
M  V30 8652 H  -20.1459 25.6300 -12.1057 0
M  V30 8653 H  -18.1220 27.9094 -14.5578 0
M  V30 8654 H  -18.6189 26.2529 -14.8176 0
M  V30 8655 H  -22.2933 25.7711 -15.4378 0
M  V30 8656 H  -22.5645 28.3046 -16.5952 0
M  V30 8657 H  -23.4475 25.5634 -17.5457 0
M  V30 8658 H  -23.7022 26.5063 -19.8528 0
M  V30 8659 H  -24.9581 27.0902 -18.7946 0
M  V30 8660 H  -23.5988 28.1342 -19.2027 0
M  V30 8661 H  -21.5190 25.6671 -18.9870 0
M  V30 8662 H  -21.2278 27.3532 -18.5924 0
M  V30 8663 H  -20.9697 26.1004 -17.3787 0
M  V30 8664 H  -25.1948 25.9943 -15.6645 0
M  V30 8665 H  -27.3977 27.3566 -16.5274 0
M  V30 8666 H  -28.6389 26.0824 -14.7801 0
M  V30 8667 H  -27.4470 25.0631 -15.5653 0
M  V30 8668 H  -27.1307 25.7017 -13.9608 0
M  V30 8669 H  -25.8753 27.8125 -13.2592 0
M  V30 8670 H  -27.8645 29.8038 -12.6379 0
M  V30 8671 H  -26.9423 29.9658 -10.4648 0
M  V30 8672 H  -24.4819 29.8261 -10.9643 0
M  V30 8673 H  -24.6411 28.1176 -11.1823 0
M  V30 8674 H  -27.4958 27.7598 -9.6671 0
M  V30 8675 H  -28.4289 28.0208 -11.1217 0
M  V30 8676 H  -26.9999 27.0060 -11.1772 0
M  V30 8677 H  -23.8626 28.6262 -8.8843 0
M  V30 8678 H  -25.2507 29.6629 -8.6007 0
M  V30 8679 H  -25.4469 27.9175 -8.7791 0
M  V30 8680 H  -24.6370 29.9951 -13.9335 0
M  V30 8681 H  -24.3287 32.8223 -13.2246 0
M  V30 8682 H  -22.1786 32.6421 -14.4527 0
M  V30 8683 H  -21.0681 30.9599 -12.9431 0
M  V30 8684 H  -22.0512 32.1553 -12.1108 0
M  V30 8685 H  -22.6666 30.5311 -12.3374 0
M  V30 8686 H  -22.6535 29.8976 -14.7083 0
M  V30 8687 H  -26.4184 31.6164 -15.3911 0
M  V30 8688 H  -25.7956 33.4394 -17.6246 0
M  V30 8689 H  -27.9779 32.7809 -18.4776 0
M  V30 8690 H  -28.3740 31.9483 -17.0050 0
M  V30 8691 H  -27.8281 30.3670 -18.7859 0
M  V30 8692 H  -26.8151 30.2306 -17.4089 0
M  V30 8693 H  -25.8525 31.8541 -19.7517 0
M  V30 8694 H  -25.7674 30.1095 -19.8530 0
M  V30 8695 H  -24.5493 30.6338 -17.4967 0
M  V30 8696 H  -22.1624 31.9631 -20.4920 0
M  V30 8697 H  -23.8963 32.0098 -20.7090 0
M  V30 8698 H  -21.2710 31.1494 -18.5137 0
M  V30 8699 H  -22.3295 30.7385 -17.1914 0
M  V30 8700 H  -27.4381 33.5647 -14.5162 0
M  V30 8701 H  -29.2150 35.7377 -15.0792 0
M  V30 8702 H  -29.3447 35.6878 -12.4871 0
M  V30 8703 H  -29.8320 34.2322 -13.3462 0
M  V30 8704 H  -28.2504 34.3133 -12.5917 0
M  V30 8705 H  -28.9071 37.8703 -15.0112 0
M  V30 8706 H  -26.3952 39.0447 -14.0082 0
M  V30 8707 H  -27.4630 41.1580 -14.9802 0
M  V30 8708 H  -28.7254 40.1669 -15.6236 0
M  V30 8709 H  -26.9556 38.9157 -16.9737 0
M  V30 8710 H  -25.7583 39.9481 -16.2247 0
M  V30 8711 H  -26.0857 41.0471 -18.2414 0
M  V30 8712 H  -27.0626 41.9649 -17.1467 0
M  V30 8713 H  -29.0971 40.5813 -17.9175 0
M  V30 8714 H  -28.0763 39.8718 -19.1389 0
M  V30 8715 H  -27.6693 42.0863 -19.9873 0
M  V30 8716 H  -29.2827 41.7335 -19.9754 0
M  V30 8717 H  -28.6559 42.7342 -18.8286 0
M  V30 8718 H  -29.8667 38.8437 -13.1963 0
M  V30 8719 H  -29.4702 40.8109 -10.9777 0
M  V30 8720 H  -31.9724 40.2968 -12.6410 0
M  V30 8721 H  -32.9396 42.2518 -11.4105 0
M  V30 8722 H  -32.6963 40.8660 -10.3752 0
M  V30 8723 H  -31.5668 42.2184 -10.3099 0
M  V30 8724 H  -31.6769 42.6320 -13.4392 0
M  V30 8725 H  -30.1311 42.7259 -12.5979 0
M  V30 8726 H  -30.3507 41.6065 -13.9417 0
M  V30 8727 H  -31.6068 37.9938 -11.9483 0
M  V30 8728 H  -33.0367 37.4198 -9.8430 0
M  V30 8729 H  -31.4847 37.0715 -9.0943 0
M  V30 8730 H  -32.2747 34.9006 -8.8222 0
M  V30 8731 H  -32.8765 33.3560 -11.1721 0
M  V30 8732 H  -30.4657 33.1087 -11.1595 0
M  V30 8733 H  -32.0644 31.1411 -11.6936 0
M  V30 8734 H  -31.5815 30.4639 -10.1628 0
M  V30 8735 H  -29.2111 32.0335 -9.3206 0
M  V30 8736 H  -29.9476 33.5247 -8.7733 0
M  V30 8737 H  -30.6532 31.9799 -8.3225 0
M  V30 8738 H  -30.2852 29.6269 -12.1663 0
M  V30 8739 H  -29.6049 31.2438 -12.3521 0
M  V30 8740 H  -29.2742 30.3016 -10.8913 0
M  V30 8741 H  -34.1365 31.5618 -10.7790 0
M  V30 8742 H  -34.7391 30.8224 -7.9463 0
M  V30 8743 H  -36.5083 30.8366 -10.4167 0
M  V30 8744 H  -36.7041 31.8615 -9.0255 0
M  V30 8745 H  -36.9808 28.8133 -9.0139 0
M  V30 8746 H  -38.2114 29.4820 -6.7201 0
M  V30 8747 H  -36.4843 29.1972 -6.7787 0
M  V30 8748 H  -37.1084 30.8446 -6.7912 0
M  V30 8749 H  -39.4778 30.1006 -8.4565 0
M  V30 8750 H  -38.8469 30.7581 -9.9585 0
M  V30 8751 H  -39.0508 29.0291 -9.7704 0
M  V30 8752 H  -33.9545 28.8298 -7.4921 0
M  V30 8753 H  -33.4208 26.8863 -9.7147 0
M  V30 8754 H  -31.7373 25.9747 -7.9346 0
M  V30 8755 H  -31.8625 27.5618 -7.1966 0
M  V30 8756 H  -31.0164 26.6364 -10.2506 0
M  V30 8757 H  -35.2090 25.6010 -9.7173 0
M  V30 8758 H  -36.2335 24.5073 -7.1531 0
M  V30 8759 H  -37.1472 23.7568 -9.9548 0
M  V30 8760 H  -39.0504 25.2827 -9.6947 0
M  V30 8761 H  -37.5429 26.1080 -9.9151 0
M  V30 8762 H  -39.2024 23.0350 -8.7722 0
M  V30 8763 H  -37.7904 22.1756 -8.1651 0
M  V30 8764 H  -38.4910 23.4787 -7.2275 0
M  V30 8765 H  -39.0354 27.1697 -8.1788 0
M  V30 8766 H  -38.8527 25.7495 -7.1701 0
M  V30 8767 H  -37.4536 26.7555 -7.5371 0
M  V30 8768 H  -34.7884 23.1158 -6.3417 0
M  V30 8769 H  -33.0657 21.4861 -8.0842 0
M  V30 8770 H  -31.8147 21.1823 -5.9113 0
M  V30 8771 H  -33.0201 22.1231 -5.0898 0
M  V30 8772 H  -31.0432 23.4988 -5.6013 0
M  V30 8773 H  -32.4415 24.1284 -6.4173 0
M  V30 8774 H  -28.8692 21.9232 -8.3581 0
M  V30 8775 H  -28.8551 22.6965 -6.7670 0
M  V30 8776 H  -29.8207 21.2417 -7.0373 0
M  V30 8777 H  -32.7620 19.3536 -7.9146 0
M  V30 8778 H  -34.7726 17.7007 -6.4505 0
M  V30 8779 H  -34.0451 15.9417 -8.0534 0
M  V30 8780 H  -32.9347 17.0707 -8.8208 0
M  V30 8781 H  -34.9422 16.8385 -9.8917 0
M  V30 8782 H  -31.2821 18.2667 -7.1067 0
M  V30 8783 H  -30.3829 16.1152 -5.3903 0
M  V30 8784 H  -28.9010 18.3040 -6.9158 0
M  V30 8785 H  -29.2418 16.7134 -7.5041 0
M  V30 8786 H  -29.8541 16.2601 -3.2977 0
M  V30 8787 H  -30.3268 18.6486 -1.7932 0
M  V30 8788 H  -29.1407 15.9516 -1.0035 0
M  V30 8789 H  -30.8287 16.3677 -0.9688 0
M  V30 8790 H  -28.6435 17.5791 0.7427 0
M  V30 8791 H  -29.8124 16.4440 1.3207 0
M  V30 8792 H  -31.6121 18.3266 0.6163 0
M  V30 8793 H  -30.2097 19.3452 0.4594 0
M  V30 8794 H  -29.7927 19.5220 2.5853 0
M  V30 8795 H  -32.5270 16.8927 4.0682 0
M  V30 8796 H  -32.2475 16.9383 2.3468 0
M  V30 8797 H  -31.3588 18.3488 5.4658 0
M  V30 8798 H  -30.2067 19.4674 4.7862 0
M  V30 8799 H  -27.3904 17.0455 -2.9975 0
M  V30 8800 H  -25.4715 18.4010 -1.4634 0
M  V30 8801 H  -25.2885 17.0883 -4.2087 0
M  V30 8802 H  -24.9954 16.3322 -2.6860 0
M  V30 8803 H  -26.4659 19.0900 -4.8879 0
M  V30 8804 H  -25.1336 21.5970 -4.9530 0
M  V30 8805 H  -26.6022 21.9187 -7.0641 0
M  V30 8806 H  -27.2528 20.3377 -6.7168 0
M  V30 8807 H  -24.8749 19.4441 -6.7893 0
M  V30 8808 H  -24.8989 20.2584 -9.5218 0
M  V30 8809 H  -25.5660 18.8122 -8.7899 0
M  V30 8810 H  -26.5731 20.2348 -9.0112 0
M  V30 8811 H  -23.5096 21.4201 -8.3289 0
M  V30 8812 H  -24.1677 22.2746 -6.9529 0
M  V30 8813 H  -23.1452 20.8689 -6.7066 0
M  V30 8814 H  -28.4348 20.7771 -3.8696 0
M  V30 8815 H  -29.4286 23.4445 -3.8379 0
M  V30 8816 H  -30.1944 20.9621 -2.2680 0
M  V30 8817 H  -30.9747 21.5967 -3.6851 0
M  V30 8818 H  -30.7800 21.6749 -0.0726 0
M  V30 8819 H  -32.2271 23.8619 -3.4997 0
M  V30 8820 H  -32.2198 23.0356 1.4107 0
M  V30 8821 H  -33.6904 25.1972 -2.0136 0
M  V30 8822 H  -33.8039 24.7141 1.5263 0
M  V30 8823 H  -27.7491 21.5249 -1.2516 0
M  V30 8824 H  -27.7255 23.7037 0.6062 0
M  V30 8825 H  -25.9783 22.3094 1.8325 0
M  V30 8826 H  -26.0690 21.1518 0.5248 0
M  V30 8827 H  -25.5771 22.9014 -2.0611 0
M  V30 8828 H  -23.4394 24.6486 -1.2249 0
M  V30 8829 H  -22.8193 24.3341 -3.7398 0
M  V30 8830 H  -24.1597 23.2320 -3.8052 0
M  V30 8831 H  -22.9844 22.0210 -1.7756 0
M  V30 8832 H  -21.6336 23.0766 -2.0985 0
M  V30 8833 H  -21.8242 22.1836 -4.5700 0
M  V30 8834 H  -22.8230 20.9382 -3.8897 0
M  V30 8835 H  -20.9134 20.3578 -2.2748 0
M  V30 8836 H  -19.9054 21.5000 -3.1428 0
M  V30 8837 H  -20.3043 20.1912 -5.1417 0
M  V30 8838 H  -19.5967 19.2993 -3.9440 0
M  V30 8839 H  -21.2011 19.1179 -4.2589 0
M  V30 8840 H  -26.4986 25.2289 -2.9330 0
M  V30 8841 H  -25.7776 27.7586 -4.0884 0
M  V30 8842 H  -28.3517 28.1069 -3.9526 0
M  V30 8843 H  -28.4337 26.5243 -3.2534 0
M  V30 8844 H  -27.3483 25.6210 -5.3395 0
M  V30 8845 H  -29.4058 25.1838 -6.1491 0
M  V30 8846 H  -30.0240 26.1816 -4.8526 0
M  V30 8847 H  -29.7858 26.8743 -6.4418 0
M  V30 8848 H  -27.8935 27.6460 -7.2570 0
M  V30 8849 H  -26.9626 28.4193 -5.9827 0
M  V30 8850 H  -26.3514 26.9881 -6.7857 0
M  V30 8851 H  -25.2958 29.5874 -3.0801 0
M  V30 8852 H  -25.9866 30.0323 -0.2450 0
M  V30 8853 H  -24.4433 31.9609 -0.5009 0
M  V30 8854 H  -24.2293 31.5867 -2.1927 0
M  V30 8855 H  -23.2910 29.3244 -1.5630 0
M  V30 8856 H  -23.5227 29.7045 0.1293 0
M  V30 8857 H  -19.9631 30.3807 -1.1083 0
M  V30 8858 H  -21.0485 29.0439 -1.3839 0
M  V30 8859 H  -28.2108 29.8607 -1.7443 0
M  V30 8860 H  -29.2299 32.5861 -2.3726 0
M  V30 8861 H  -31.0278 31.1973 -3.5062 0
M  V30 8862 H  -30.1971 29.7561 -3.0395 0
M  V30 8863 H  -27.6064 32.0260 -4.0536 0
M  V30 8864 H  -30.7830 29.5522 -5.6074 0
M  V30 8865 H  -26.4876 31.9119 -6.1997 0
M  V30 8866 H  -29.6502 29.5279 -7.7800 0
M  V30 8867 H  -27.4970 30.6486 -8.0757 0
M  V30 8868 H  -31.4590 33.0132 -1.7258 0
M  V30 8869 H  -32.0623 32.3365 1.0316 0
M  V30 8870 H  -33.5567 33.8810 -1.1504 0
M  V30 8871 H  -34.9747 34.8350 0.6983 0
M  V30 8872 H  -35.3100 33.1343 0.4542 0
M  V30 8873 H  -34.3120 33.6448 1.8139 0
M  V30 8874 H  -31.7081 34.8516 -0.4112 0
M  V30 8875 H  -33.0989 30.4555 1.6486 0
M  V30 8876 H  -34.3348 28.7297 -0.2764 0
M  V30 8877 H  -33.1247 27.8512 1.6762 0
M  V30 8878 H  -34.7687 27.2608 1.5945 0
M  V30 8879 H  -35.3555 28.7946 3.1608 0
M  V30 8880 H  -36.4160 28.4851 -0.8727 0
M  V30 8881 H  -38.5701 30.0210 0.5286 0
M  V30 8882 H  -39.8126 29.8639 -1.5905 0
M  V30 8883 H  -38.5399 28.9460 -2.3222 0
M  V30 8884 H  -37.0077 30.8552 -2.2569 0
M  V30 8885 H  -38.3726 32.2668 -3.9618 0
M  V30 8886 H  -38.1451 30.5619 -4.3163 0
M  V30 8887 H  -39.6816 31.1289 -3.6770 0
M  V30 8888 H  -38.5580 33.1214 -1.8619 0
M  V30 8889 H  -39.1267 32.0749 -0.5724 0
M  V30 8890 H  -37.4180 32.4627 -0.7040 0
M  V30 8891 H  -40.4590 28.9360 1.0031 0
M  V30 8892 H  -40.2698 26.0506 1.3794 0
M  V30 8893 H  -41.9435 24.5984 0.8213 0
M  V30 8894 H  -42.9122 24.8686 -1.9024 0
M  V30 8895 H  -43.2044 22.6355 0.1308 0
M  V30 8896 H  -40.7688 23.3080 -0.6945 0
M  V30 8897 H  -41.2420 22.5419 -2.1697 0
M  V30 8898 H  -43.6801 21.1553 -1.8082 0
M  V30 8899 H  -44.9061 22.3816 -1.6618 0
M  V30 8900 H  -43.6571 22.5450 -2.8896 0
M  V30 8901 H  -40.0483 21.0337 -0.4823 0
M  V30 8902 H  -41.4038 21.2179 0.6072 0
M  V30 8903 H  -41.6229 20.3937 -0.9304 0
M  V30 8904 H  -46.9781 26.2704 -0.2293 0
M  V30 8905 H  -48.7996 24.6336 -0.5879 0
M  V30 8906 H  -48.1278 27.1916 -2.0850 0
M  V30 8907 H  -47.8106 25.7972 -3.1045 0
M  V30 8908 H  -45.8969 27.9937 -2.3857 0
M  V30 8909 H  -46.2175 27.2896 -3.9796 0
M  V30 8910 H  -45.0020 25.2729 -3.3975 0
M  V30 8911 H  -44.0806 26.5306 -2.5518 0
M  V30 8912 C  8.6804 -4.5204 -34.5464 0
M  V30 8913 C  8.8161 -4.7533 -33.0329 0
M  V30 8914 C  8.7363 -6.2267 -32.6158 0
M  V30 8915 C  8.9894 -6.4292 -31.1178 0
M  V30 8916 N  8.7237 -7.8210 -30.7181 0 CHG=1
M  V30 8917 H  9.5738 -4.9165 -35.0315 0
M  V30 8918 H  8.6948 -3.4460 -34.7323 0
M  V30 8919 H  9.7731 -4.3444 -32.7091 0
M  V30 8920 H  8.0434 -4.1942 -32.5054 0
M  V30 8921 H  7.7421 -6.6060 -32.8491 0
M  V30 8922 H  9.4416 -6.8163 -33.2040 0
M  V30 8923 H  10.0172 -6.1682 -30.8649 0
M  V30 8924 H  8.3368 -5.7780 -30.5347 0
M  V30 8925 H  9.3150 -8.4494 -31.2422 0
M  V30 8926 H  8.8964 -7.9282 -29.7290 0
M  V30 8927 H  7.7511 -8.0279 -30.9089 0
M  V30 8928 C  12.0331 -6.2361 -42.3800 0
M  V30 8929 C  13.2071 -6.6567 -43.2929 0
M  V30 8930 C  13.1055 -8.1129 -43.7788 0
M  V30 8931 C  14.2360 -8.5322 -44.7401 0
M  V30 8932 N  15.5611 -8.5665 -44.0904 0 CHG=1
M  V30 8933 H  12.0019 -6.9149 -41.5270 0
M  V30 8934 H  11.0891 -6.3842 -42.9066 0
M  V30 8935 H  13.2530 -5.9944 -44.1580 0
M  V30 8936 H  14.1496 -6.5315 -42.7615 0
M  V30 8937 H  13.0801 -8.7850 -42.9193 0
M  V30 8938 H  12.1491 -8.2502 -44.2857 0
M  V30 8939 H  14.0281 -9.5280 -45.1334 0
M  V30 8940 H  14.2747 -7.8570 -45.5957 0
M  V30 8941 H  15.5432 -9.2209 -43.3211 0
M  V30 8942 H  16.2588 -8.8571 -44.7608 0
M  V30 8943 H  15.7917 -7.6466 -43.7435 0
M  V30 8944 C  8.4294 -1.1735 -23.5199 0
M  V30 8945 C  8.7857 -1.8472 -22.1746 0
M  V30 8946 O  8.1507 -2.8498 -21.7820 0
M  V30 8947 O  9.6444 -1.2556 -21.4838 0 CHG=-1
M  V30 8948 H  9.3499 -0.7677 -23.9442 0
M  V30 8949 H  7.8277 -0.2928 -23.2912 0
M  V30 8950 C  3.3983 -1.5009 -22.6950 0
M  V30 8951 C  3.9366 -2.3810 -21.5594 0
M  V30 8952 O  4.4814 -1.8725 -20.5830 0
M  V30 8953 N  3.7623 -3.7010 -21.6610 0
M  V30 8954 H  3.6383 -0.4565 -22.4888 0
M  V30 8955 H  2.3107 -1.5760 -22.6470 0
M  V30 8956 H  4.1124 -4.3076 -20.9342 0
M  V30 8957 H  3.3168 -4.1042 -22.4717 0
M  V30 8958 C  -43.4555 25.5780 -37.0046 0
M  V30 8959 C  -43.3020 27.0091 -37.5538 0
M  V30 8960 C  -43.4292 28.0850 -36.4637 0
M  V30 8961 N  -43.1772 29.4367 -36.9951 0
M  V30 8962 C  -41.9924 30.0650 -37.1170 0
M  V30 8963 N  -40.8402 29.5050 -36.7164 0
M  V30 8964 N  -41.9643 31.2887 -37.6604 0 CHG=1
M  V30 8965 H  -44.4113 25.4993 -36.4846 0
M  V30 8966 H  -42.6917 25.4168 -36.2423 0
M  V30 8967 H  -42.3918 27.1310 -38.1428 0
M  V30 8968 H  -44.1283 27.1707 -38.2453 0
M  V30 8969 H  -44.4723 28.1167 -36.1464 0
M  V30 8970 H  -42.8531 27.8505 -35.5679 0
M  V30 8971 H  -43.9969 29.9106 -37.3471 0
M  V30 8972 H  -39.9632 29.9930 -36.8248 0
M  V30 8973 H  -40.8471 28.5806 -36.3103 0
M  V30 8974 H  -41.0898 31.7814 -37.7696 0
M  V30 8975 H  -42.8178 31.7283 -37.9736 0
M  V30 8976 C  -30.8354 22.1700 -30.4658 0
M  V30 8977 C  -30.4662 23.3297 -31.4111 0
M  V30 8978 C  -30.5755 24.7134 -30.7487 0
M  V30 8979 N  -30.1699 25.7943 -31.6667 0
M  V30 8980 C  -28.9233 26.2265 -31.9388 0
M  V30 8981 N  -27.8380 25.7068 -31.3442 0
M  V30 8982 N  -28.7628 27.2067 -32.8373 0 CHG=1
M  V30 8983 H  -31.8516 22.3508 -30.1116 0
M  V30 8984 H  -30.2011 22.1869 -29.5780 0
M  V30 8985 H  -29.4906 23.2013 -31.8791 0
M  V30 8986 H  -31.1909 23.2920 -32.2264 0
M  V30 8987 H  -31.6289 24.9096 -30.5461 0
M  V30 8988 H  -30.0706 24.7557 -29.7827 0
M  V30 8989 H  -30.9301 26.2171 -32.1799 0
M  V30 8990 H  -26.9136 26.0462 -31.5670 0
M  V30 8991 H  -27.9430 24.9613 -30.6713 0
M  V30 8992 H  -27.8396 27.5485 -33.0625 0
M  V30 8993 H  -29.5627 27.6142 -33.2999 0
M  V30 8994 C  -36.6326 17.8519 -52.8110 0
M  V30 8995 C  -37.9022 17.7443 -53.6797 0
M  V30 8996 C  -38.4457 19.1026 -54.1630 0
M  V30 8997 N  -37.5700 19.7455 -55.1614 0
M  V30 8998 C  -37.5049 19.4802 -56.4805 0
M  V30 8999 N  -38.2892 18.5619 -57.0672 0
M  V30 9000 N  -36.6244 20.1535 -57.2316 0 CHG=1
M  V30 9001 H  -36.8506 18.5307 -51.9911 0
M  V30 9002 H  -35.8237 18.3091 -53.3807 0
M  V30 9003 H  -37.6337 17.1535 -54.5564 0
M  V30 9004 H  -38.6925 17.1819 -53.1811 0
M  V30 9005 H  -39.4883 19.0416 -54.4763 0
M  V30 9006 H  -38.4362 19.7899 -53.3162 0
M  V30 9007 H  -36.9301 20.4304 -54.7849 0
M  V30 9008 H  -38.2252 18.3821 -58.0583 0
M  V30 9009 H  -38.9554 18.0441 -56.5121 0
M  V30 9010 H  -36.5559 19.9771 -58.2234 0
M  V30 9011 H  -36.0260 20.8519 -56.8145 0
M  V30 9012 C  -35.2775 13.0892 -62.7165 0
M  V30 9013 C  -36.4087 13.9681 -63.2767 0
M  V30 9014 C  -36.1074 14.4585 -64.7036 0
M  V30 9015 C  -37.2870 15.2123 -65.3395 0
M  V30 9016 N  -36.9709 15.6737 -66.7040 0 CHG=1
M  V30 9017 H  -34.3377 13.6430 -62.6847 0
M  V30 9018 H  -35.1219 12.2857 -63.4394 0
M  V30 9019 H  -37.3390 13.3984 -63.2801 0
M  V30 9020 H  -36.5732 14.8227 -62.6195 0
M  V30 9021 H  -35.2282 15.1044 -64.6754 0
M  V30 9022 H  -35.8380 13.6048 -65.3277 0
M  V30 9023 H  -38.1648 14.5668 -65.3856 0
M  V30 9024 H  -37.5553 16.0765 -64.7310 0
M  V30 9025 H  -36.7466 14.8793 -67.2865 0
M  V30 9026 H  -37.7694 16.1571 -67.0905 0
M  V30 9027 H  -36.1806 16.3023 -66.6749 0
M  V30 9028 C  -36.0919 24.5954 -35.6069 0
M  V30 9029 C  -37.0251 24.5642 -34.3855 0
M  V30 9030 C  -36.2404 24.7283 -33.0711 0
M  V30 9031 N  -37.1209 24.8489 -31.8969 0
M  V30 9032 C  -37.7138 25.9634 -31.4285 0
M  V30 9033 N  -37.5582 27.1615 -32.0151 0
M  V30 9034 N  -38.4840 25.8661 -30.3377 0 CHG=1
M  V30 9035 H  -35.3423 23.8232 -35.4575 0
M  V30 9036 H  -35.5537 25.5443 -35.6189 0
M  V30 9037 H  -37.8519 25.2709 -34.4679 0
M  V30 9038 H  -37.4778 23.5716 -34.3688 0
M  V30 9039 H  -35.7033 23.7959 -32.8917 0
M  V30 9040 H  -35.4753 25.5034 -33.1250 0
M  V30 9041 H  -37.3086 23.9812 -31.4105 0
M  V30 9042 H  -38.0123 27.9815 -31.6402 0
M  V30 9043 H  -36.9776 27.2451 -32.8366 0
M  V30 9044 H  -38.9484 26.6775 -29.9568 0
M  V30 9045 H  -38.5958 24.9727 -29.8749 0
M  V30 9046 C  -30.6971 26.2490 -41.2846 0 CFG=2
M  V30 9047 O  -30.3321 25.4220 -40.1968 0
M  V30 9048 C  -29.5321 27.2254 -41.5372 0
M  V30 9049 H  -30.7845 25.5995 -42.1572 0
M  V30 9050 H  -30.9624 24.6996 -40.1383 0
M  V30 9051 H  -28.5854 26.6899 -41.6200 0
M  V30 9052 H  -29.6595 27.7846 -42.4644 0
M  V30 9053 H  -29.4354 27.9442 -40.7228 0
M  V30 9054 C  -43.3158 25.5042 -49.2300 0
M  V30 9055 C  -43.5093 27.0131 -49.0076 0
M  V30 9056 C  -44.4832 27.6337 -50.0183 0
M  V30 9057 C  -44.6222 29.1524 -49.8313 0
M  V30 9058 N  -45.6388 29.7236 -50.7317 0 CHG=1
M  V30 9059 H  -42.8874 25.3465 -50.2213 0
M  V30 9060 H  -44.2959 25.0245 -49.2396 0
M  V30 9061 H  -43.8756 27.1860 -47.9946 0
M  V30 9062 H  -42.5486 27.5243 -49.0776 0
M  V30 9063 H  -44.1431 27.4126 -51.0315 0
M  V30 9064 H  -45.4574 27.1539 -49.9094 0
M  V30 9065 H  -44.9084 29.3802 -48.8038 0
M  V30 9066 H  -43.6671 29.6455 -50.0159 0
M  V30 9067 H  -46.5359 29.3007 -50.5397 0
M  V30 9068 H  -45.6999 30.7206 -50.5816 0
M  V30 9069 H  -45.3811 29.5439 -51.6914 0
M  V30 9070 C  3.1896 28.2005 -38.6866 0
M  V30 9071 C  2.7316 27.2755 -39.8274 0
M  V30 9072 C  3.8306 27.0670 -40.8826 0
M  V30 9073 N  3.3706 26.2046 -41.9840 0
M  V30 9074 C  3.3374 24.8597 -42.0240 0
M  V30 9075 N  3.7860 24.0998 -41.0128 0
M  V30 9076 N  2.8296 24.2623 -43.1096 0 CHG=1
M  V30 9077 H  3.5173 29.1256 -39.1559 0
M  V30 9078 H  4.0887 27.7956 -38.2205 0
M  V30 9079 H  2.3561 26.3245 -39.4464 0
M  V30 9080 H  1.8890 27.7565 -40.3268 0
M  V30 9081 H  4.0655 28.0285 -41.3405 0
M  V30 9082 H  4.7600 26.7086 -40.4384 0
M  V30 9083 H  2.9813 26.7008 -42.7730 0
M  V30 9084 H  3.7360 23.0926 -41.0641 0
M  V30 9085 H  4.1614 24.5365 -40.1839 0
M  V30 9086 H  2.7674 23.2556 -43.1597 0
M  V30 9087 H  2.4691 24.8105 -43.8775 0
M  V30 9088 C  -46.9009 24.4236 -23.6682 0
M  V30 9089 C  -48.4196 24.3765 -23.9318 0
M  V30 9090 C  -48.9013 23.0302 -24.4988 0
M  V30 9091 C  -50.3974 23.0096 -24.8700 0
M  V30 9092 N  -51.2812 23.1490 -23.6966 0 CHG=1
M  V30 9093 H  -46.3808 24.1492 -24.5873 0
M  V30 9094 H  -46.6306 23.6662 -22.9304 0
M  V30 9095 H  -48.9562 24.5849 -23.0065 0
M  V30 9096 H  -48.6855 25.1747 -24.6263 0
M  V30 9097 H  -48.3187 22.7917 -25.3897 0
M  V30 9098 H  -48.6838 22.2346 -23.7844 0
M  V30 9099 H  -50.6211 23.8053 -25.5814 0
M  V30 9100 H  -50.6378 22.0680 -25.3645 0
M  V30 9101 H  -51.0981 24.0317 -23.2409 0
M  V30 9102 H  -52.2458 23.1202 -23.9953 0
M  V30 9103 H  -51.1072 22.3935 -23.0496 0
M  V30 9104 C  -41.6803 27.2507 2.4608 0
M  V30 9105 C  -42.7710 28.3568 2.3963 0
M  V30 9106 C  -42.3112 29.8286 2.4320 0
M  V30 9107 O  -41.1026 30.0994 2.6127 0
M  V30 9108 O  -43.2079 30.6865 2.2823 0 CHG=-1
M  V30 9109 H  -42.1637 26.3404 2.8179 0
M  V30 9110 H  -40.9559 27.4872 3.2415 0
M  V30 9111 H  -43.4149 28.2092 1.5285 0
M  V30 9112 H  -43.4240 28.2230 3.2599 0
M  V30 9113 H  -49.9170 11.6492 -36.7379 0
M  V30 9114 H  5.2054 29.2190 -18.9432 0
M  V30 9115 H  -11.5428 46.6048 -21.3872 0
M  V30 9116 H  -19.1768 26.8862 -40.3193 0
M  V30 9117 H  6.0757 36.5546 -29.1484 0
M  V30 9118 H  -17.3318 47.8344 -10.4552 0
M  V30 9119 H  -29.1787 17.6525 -19.8709 0
M  V30 END ATOM
M  V30 BEGIN BOND
M  V30 1 1 1 2
M  V30 2 1 1 4487
M  V30 3 1 1 4488
M  V30 4 1 1 4489
M  V30 5 1 2 3
M  V30 6 1 2 5
M  V30 7 1 2 4490
M  V30 8 2 3 4
M  V30 9 1 3 8
M  V30 10 1 5 6
M  V30 11 1 5 7
M  V30 12 1 5 4491
M  V30 13 1 6 4492
M  V30 14 1 6 4493
M  V30 15 1 6 4494
M  V30 16 1 7 4495
M  V30 17 1 7 4496
M  V30 18 1 7 4497
M  V30 19 1 8 9
M  V30 20 1 8 4498
M  V30 21 1 9 10
M  V30 22 1 9 4499
M  V30 23 1 9 4500
M  V30 24 2 10 11
M  V30 25 1 10 12
M  V30 26 1 12 13
M  V30 27 1 12 4501
M  V30 28 1 13 14
M  V30 29 1 13 16
M  V30 30 1 13 4502
M  V30 31 2 14 15
M  V30 32 1 14 17
M  V30 33 1 16 4503
M  V30 34 1 16 4504
M  V30 35 1 16 4505
M  V30 36 1 17 18
M  V30 37 1 17 4506
M  V30 38 1 18 19
M  V30 39 1 18 21
M  V30 40 1 18 4507
M  V30 41 2 19 20
M  V30 42 1 19 23
M  V30 43 1 21 22
M  V30 44 1 21 4508
M  V30 45 1 21 4509
M  V30 46 1 23 24
M  V30 47 1 23 4510
M  V30 48 1 24 25
M  V30 49 1 24 27
M  V30 50 1 24 4511
M  V30 51 2 25 26
M  V30 52 1 25 30
M  V30 53 1 27 28
M  V30 54 1 27 29
M  V30 55 1 27 4512
M  V30 56 1 28 4513
M  V30 57 1 28 4514
M  V30 58 1 28 4515
M  V30 59 1 29 4516
M  V30 60 1 29 4517
M  V30 61 1 29 4518
M  V30 62 1 30 31
M  V30 63 1 30 4519
M  V30 64 1 31 32
M  V30 65 1 31 34
M  V30 66 1 31 4520
M  V30 67 2 32 33
M  V30 68 1 32 38
M  V30 69 1 34 35
M  V30 70 1 34 4521
M  V30 71 1 34 4522
M  V30 72 1 35 36
M  V30 73 1 35 37
M  V30 74 1 35 4523
M  V30 75 1 36 4524
M  V30 76 1 36 4525
M  V30 77 1 36 4526
M  V30 78 1 37 4527
M  V30 79 1 37 4528
M  V30 80 1 37 4529
M  V30 81 1 38 39
M  V30 82 1 38 4530
M  V30 83 1 39 40
M  V30 84 1 39 42
M  V30 85 1 39 4531
M  V30 86 2 40 41
M  V30 87 1 40 44
M  V30 88 1 42 43
M  V30 89 1 42 4532
M  V30 90 1 42 4533
M  V30 91 1 43 4534
M  V30 92 1 44 45
M  V30 93 1 44 4535
M  V30 94 1 45 46
M  V30 95 1 45 48
M  V30 96 1 45 4536
M  V30 97 2 46 47
M  V30 98 1 46 52
M  V30 99 1 48 49
M  V30 100 1 48 4537
M  V30 101 1 48 4538
M  V30 102 1 49 50
M  V30 103 2 49 51
M  V30 104 1 50 4539
M  V30 105 1 50 4540
M  V30 106 1 52 53
M  V30 107 1 52 4541
M  V30 108 1 53 54
M  V30 109 1 53 56
M  V30 110 1 53 4542
M  V30 111 2 54 55
M  V30 112 1 54 58
M  V30 113 1 56 57
M  V30 114 1 56 4543
M  V30 115 1 56 4544
M  V30 116 1 57 4545
M  V30 117 1 58 59
M  V30 118 1 58 4546
M  V30 119 1 59 60
M  V30 120 1 59 62
M  V30 121 1 59 4547
M  V30 122 2 60 61
M  V30 123 1 60 67
M  V30 124 1 62 63
M  V30 125 1 62 4548
M  V30 126 1 62 4549
M  V30 127 1 63 64
M  V30 128 1 63 4550
M  V30 129 1 63 4551
M  V30 130 1 64 65
M  V30 131 2 64 66
M  V30 132 1 65 4552
M  V30 133 1 65 4553
M  V30 134 1 67 68
M  V30 135 1 67 4554
M  V30 136 1 68 69
M  V30 137 1 68 71
M  V30 138 1 68 4555
M  V30 139 2 69 70
M  V30 140 1 69 74
M  V30 141 1 71 72
M  V30 142 1 71 73
M  V30 143 1 71 4556
M  V30 144 1 72 4557
M  V30 145 1 72 4558
M  V30 146 1 72 4559
M  V30 147 1 73 4560
M  V30 148 1 74 75
M  V30 149 1 74 4561
M  V30 150 1 75 76
M  V30 151 1 75 78
M  V30 152 1 75 4562
M  V30 153 2 76 77
M  V30 154 1 76 80
M  V30 155 1 78 79
M  V30 156 1 78 4563
M  V30 157 1 78 4564
M  V30 158 1 79 4565
M  V30 159 1 80 81
M  V30 160 1 80 4566
M  V30 161 1 81 82
M  V30 162 1 81 84
M  V30 163 1 81 4567
M  V30 164 2 82 83
M  V30 165 1 82 88
M  V30 166 1 84 85
M  V30 167 1 84 4568
M  V30 168 1 84 4569
M  V30 169 1 85 86
M  V30 170 1 85 87
M  V30 171 1 85 4570
M  V30 172 1 86 4571
M  V30 173 1 86 4572
M  V30 174 1 86 4573
M  V30 175 1 87 4574
M  V30 176 1 87 4575
M  V30 177 1 87 4576
M  V30 178 1 88 89
M  V30 179 1 88 4577
M  V30 180 1 89 90
M  V30 181 1 89 92
M  V30 182 1 89 4578
M  V30 183 2 90 91
M  V30 184 1 90 99
M  V30 185 1 92 93
M  V30 186 1 92 4579
M  V30 187 1 92 4580
M  V30 188 1 93 94
M  V30 189 1 93 4581
M  V30 190 1 93 4582
M  V30 191 1 94 95
M  V30 192 1 94 4583
M  V30 193 1 94 4584
M  V30 194 1 95 96
M  V30 195 1 95 4585
M  V30 196 1 96 97
M  V30 197 2 96 98
M  V30 198 1 97 4586
M  V30 199 1 97 4587
M  V30 200 1 98 4588
M  V30 201 1 98 4589
M  V30 202 1 99 100
M  V30 203 1 99 4590
M  V30 204 1 100 101
M  V30 205 1 100 103
M  V30 206 1 100 4591
M  V30 207 2 101 102
M  V30 208 1 101 105
M  V30 209 1 103 104
M  V30 210 1 103 4592
M  V30 211 1 103 4593
M  V30 212 1 105 106
M  V30 213 1 105 4594
M  V30 214 1 106 107
M  V30 215 1 106 4595
M  V30 216 1 106 4596
M  V30 217 2 107 108
M  V30 218 1 107 109
M  V30 219 1 109 110
M  V30 220 1 109 4597
M  V30 221 1 110 111
M  V30 222 1 110 113
M  V30 223 1 110 4598
M  V30 224 2 111 112
M  V30 225 1 111 114
M  V30 226 1 113 4599
M  V30 227 1 113 4600
M  V30 228 1 113 4601
M  V30 229 1 114 115
M  V30 230 1 114 4602
M  V30 231 1 115 116
M  V30 232 1 115 118
M  V30 233 1 115 4603
M  V30 234 2 116 117
M  V30 235 1 116 120
M  V30 236 1 118 119
M  V30 237 1 118 4604
M  V30 238 1 118 4605
M  V30 239 1 119 4606
M  V30 240 1 120 121
M  V30 241 1 120 4607
M  V30 242 1 121 122
M  V30 243 1 121 124
M  V30 244 1 121 4608
M  V30 245 2 122 123
M  V30 246 1 122 128
M  V30 247 1 124 125
M  V30 248 1 124 126
M  V30 249 1 124 4609
M  V30 250 1 125 127
M  V30 251 1 125 4610
M  V30 252 1 125 4611
M  V30 253 1 126 4612
M  V30 254 1 126 4613
M  V30 255 1 126 4614
M  V30 256 1 127 4615
M  V30 257 1 127 4616
M  V30 258 1 127 4617
M  V30 259 1 128 129
M  V30 260 1 128 4618
M  V30 261 1 129 130
M  V30 262 1 129 132
M  V30 263 1 129 4619
M  V30 264 2 130 131
M  V30 265 1 130 139
M  V30 266 1 132 133
M  V30 267 1 132 4620
M  V30 268 1 132 4621
M  V30 269 1 133 134
M  V30 270 1 133 4622
M  V30 271 1 133 4623
M  V30 272 1 134 135
M  V30 273 1 134 4624
M  V30 274 1 134 4625
M  V30 275 1 135 136
M  V30 276 1 135 4626
M  V30 277 1 136 137
M  V30 278 2 136 138
M  V30 279 1 137 4627
M  V30 280 1 137 4628
M  V30 281 1 138 4629
M  V30 282 1 138 4630
M  V30 283 1 139 140
M  V30 284 1 139 4631
M  V30 285 1 140 141
M  V30 286 1 140 143
M  V30 287 1 140 4632
M  V30 288 2 141 142
M  V30 289 1 141 150
M  V30 290 1 143 144
M  V30 291 1 143 4633
M  V30 292 1 143 4634
M  V30 293 1 144 145
M  V30 294 1 144 4635
M  V30 295 1 144 4636
M  V30 296 1 145 146
M  V30 297 1 145 4637
M  V30 298 1 145 4638
M  V30 299 1 146 147
M  V30 300 1 146 4639
M  V30 301 1 147 148
M  V30 302 2 147 149
M  V30 303 1 148 4640
M  V30 304 1 148 4641
M  V30 305 1 149 4642
M  V30 306 1 149 4643
M  V30 307 1 150 151
M  V30 308 1 150 156
M  V30 309 1 151 152
M  V30 310 1 151 154
M  V30 311 1 151 4644
M  V30 312 2 152 153
M  V30 313 1 152 157
M  V30 314 1 154 155
M  V30 315 1 154 4645
M  V30 316 1 154 4646
M  V30 317 1 155 156
M  V30 318 1 155 4647
M  V30 319 1 155 4648
M  V30 320 1 156 4649
M  V30 321 1 156 4650
M  V30 322 1 157 158
M  V30 323 1 157 4651
M  V30 324 1 158 159
M  V30 325 1 158 161
M  V30 326 1 158 4652
M  V30 327 2 159 160
M  V30 328 1 159 168
M  V30 329 1 161 162
M  V30 330 1 161 4653
M  V30 331 1 161 4654
M  V30 332 2 162 163
M  V30 333 1 162 164
M  V30 334 1 163 165
M  V30 335 1 163 4655
M  V30 336 2 164 166
M  V30 337 1 164 4656
M  V30 338 2 165 167
M  V30 339 1 165 4657
M  V30 340 1 166 167
M  V30 341 1 166 4658
M  V30 342 1 167 4659
M  V30 343 1 168 169
M  V30 344 1 168 4660
M  V30 345 1 169 170
M  V30 346 1 169 172
M  V30 347 1 169 4661
M  V30 348 2 170 171
M  V30 349 1 170 176
M  V30 350 1 172 173
M  V30 351 1 172 4662
M  V30 352 1 172 4663
M  V30 353 1 173 174
M  V30 354 1 173 175
M  V30 355 1 173 4664
M  V30 356 1 174 4665
M  V30 357 1 174 4666
M  V30 358 1 174 4667
M  V30 359 1 175 4668
M  V30 360 1 175 4669
M  V30 361 1 175 4670
M  V30 362 1 176 177
M  V30 363 1 176 4671
M  V30 364 1 177 178
M  V30 365 1 177 180
M  V30 366 1 177 4672
M  V30 367 2 178 179
M  V30 368 1 178 182
M  V30 369 1 180 181
M  V30 370 1 180 4673
M  V30 371 1 180 4674
M  V30 372 1 181 4675
M  V30 373 1 182 183
M  V30 374 1 182 4676
M  V30 375 1 183 184
M  V30 376 1 183 186
M  V30 377 1 183 4677
M  V30 378 2 184 185
M  V30 379 1 184 188
M  V30 380 1 186 187
M  V30 381 1 186 4678
M  V30 382 1 186 4679
M  V30 383 1 187 4680
M  V30 384 1 188 189
M  V30 385 1 188 4681
M  V30 386 1 189 190
M  V30 387 1 189 4682
M  V30 388 1 189 8912
M  V30 389 2 190 191
M  V30 390 1 190 192
M  V30 391 1 192 193
M  V30 392 1 192 4683
M  V30 393 1 193 194
M  V30 394 1 193 196
M  V30 395 1 193 4684
M  V30 396 2 194 195
M  V30 397 1 194 198
M  V30 398 1 196 197
M  V30 399 1 196 4685
M  V30 400 1 196 4686
M  V30 401 1 197 4687
M  V30 402 1 198 199
M  V30 403 1 198 4688
M  V30 404 1 199 200
M  V30 405 1 199 202
M  V30 406 1 199 4689
M  V30 407 2 200 201
M  V30 408 1 200 204
M  V30 409 1 202 203
M  V30 410 1 202 4690
M  V30 411 1 202 4691
M  V30 412 1 203 4692
M  V30 413 1 204 205
M  V30 414 1 204 4693
M  V30 415 1 205 206
M  V30 416 1 205 208
M  V30 417 1 205 4694
M  V30 418 2 206 207
M  V30 419 1 206 216
M  V30 420 1 208 209
M  V30 421 1 208 4695
M  V30 422 1 208 4696
M  V30 423 2 209 210
M  V30 424 1 209 211
M  V30 425 1 210 212
M  V30 426 1 210 4697
M  V30 427 2 211 213
M  V30 428 1 211 4698
M  V30 429 2 212 214
M  V30 430 1 212 4699
M  V30 431 1 213 214
M  V30 432 1 213 4700
M  V30 433 1 214 215
M  V30 434 1 215 4701
M  V30 435 1 216 217
M  V30 436 1 216 4702
M  V30 437 1 217 218
M  V30 438 1 217 220
M  V30 439 1 217 4703
M  V30 440 2 218 219
M  V30 441 1 218 224
M  V30 442 1 220 221
M  V30 443 1 220 4704
M  V30 444 1 220 4705
M  V30 445 2 221 222
M  V30 446 1 221 223
M  V30 447 1 224 225
M  V30 448 1 224 4706
M  V30 449 1 225 226
M  V30 450 1 225 228
M  V30 451 1 225 4707
M  V30 452 2 226 227
M  V30 453 1 226 234
M  V30 454 1 228 229
M  V30 455 1 228 4708
M  V30 456 1 228 4709
M  V30 457 2 229 230
M  V30 458 1 229 231
M  V30 459 1 230 233
M  V30 460 1 230 4710
M  V30 461 1 231 232
M  V30 462 1 231 4711
M  V30 463 2 232 233
M  V30 464 1 232 4712
M  V30 465 1 234 235
M  V30 466 1 234 4713
M  V30 467 1 235 236
M  V30 468 1 235 238
M  V30 469 1 235 4714
M  V30 470 2 236 237
M  V30 471 1 236 241
M  V30 472 1 238 239
M  V30 473 1 238 240
M  V30 474 1 238 4715
M  V30 475 1 239 4716
M  V30 476 1 239 4717
M  V30 477 1 239 4718
M  V30 478 1 240 4719
M  V30 479 1 240 4720
M  V30 480 1 240 4721
M  V30 481 1 241 242
M  V30 482 1 241 4722
M  V30 483 1 242 243
M  V30 484 1 242 245
M  V30 485 1 242 4723
M  V30 486 2 243 244
M  V30 487 1 243 249
M  V30 488 1 245 246
M  V30 489 1 245 247
M  V30 490 1 245 4724
M  V30 491 1 246 248
M  V30 492 1 246 4725
M  V30 493 1 246 4726
M  V30 494 1 247 4727
M  V30 495 1 247 4728
M  V30 496 1 247 4729
M  V30 497 1 248 4730
M  V30 498 1 248 4731
M  V30 499 1 248 4732
M  V30 500 1 249 250
M  V30 501 1 249 4733
M  V30 502 1 250 251
M  V30 503 1 250 253
M  V30 504 1 250 4734
M  V30 505 2 251 252
M  V30 506 1 251 255
M  V30 507 1 253 254
M  V30 508 1 253 4735
M  V30 509 1 253 4736
M  V30 510 1 254 4737
M  V30 511 1 255 256
M  V30 512 1 255 4738
M  V30 513 1 256 257
M  V30 514 1 256 259
M  V30 515 1 256 4739
M  V30 516 2 257 258
M  V30 517 1 257 262
M  V30 518 1 259 260
M  V30 519 1 259 261
M  V30 520 1 259 4740
M  V30 521 1 260 4741
M  V30 522 1 260 4742
M  V30 523 1 260 4743
M  V30 524 1 261 4744
M  V30 525 1 262 263
M  V30 526 1 262 4745
M  V30 527 1 263 264
M  V30 528 1 263 266
M  V30 529 1 263 4746
M  V30 530 2 264 265
M  V30 531 1 264 268
M  V30 532 1 266 267
M  V30 533 1 266 4747
M  V30 534 1 266 4748
M  V30 535 1 267 4749
M  V30 536 1 268 269
M  V30 537 1 268 4750
M  V30 538 1 269 270
M  V30 539 1 269 272
M  V30 540 1 269 4751
M  V30 541 2 270 271
M  V30 542 1 270 278
M  V30 543 1 272 273
M  V30 544 1 272 4752
M  V30 545 1 272 4753
M  V30 546 2 273 274
M  V30 547 1 273 275
M  V30 548 1 274 277
M  V30 549 1 274 4754
M  V30 550 1 275 276
M  V30 551 1 275 4755
M  V30 552 2 276 277
M  V30 553 1 276 4756
M  V30 554 1 278 279
M  V30 555 1 278 4757
M  V30 556 1 279 280
M  V30 557 1 279 282
M  V30 558 1 279 4758
M  V30 559 2 280 281
M  V30 560 1 280 287
M  V30 561 1 282 283
M  V30 562 1 282 4759
M  V30 563 1 282 4760
M  V30 564 1 283 284
M  V30 565 1 283 4761
M  V30 566 1 283 4762
M  V30 567 1 284 285
M  V30 568 1 284 4763
M  V30 569 1 284 4764
M  V30 570 1 285 286
M  V30 571 1 285 4765
M  V30 572 1 285 4766
M  V30 573 1 286 4767
M  V30 574 1 286 4768
M  V30 575 1 286 4769
M  V30 576 1 287 288
M  V30 577 1 287 4770
M  V30 578 1 288 289
M  V30 579 1 288 291
M  V30 580 1 288 4771
M  V30 581 2 289 290
M  V30 582 1 289 295
M  V30 583 1 291 292
M  V30 584 1 291 4772
M  V30 585 1 291 4773
M  V30 586 1 292 293
M  V30 587 1 292 294
M  V30 588 1 292 4774
M  V30 589 1 293 4775
M  V30 590 1 293 4776
M  V30 591 1 293 4777
M  V30 592 1 294 4778
M  V30 593 1 294 4779
M  V30 594 1 294 4780
M  V30 595 1 295 296
M  V30 596 1 295 4781
M  V30 597 1 296 297
M  V30 598 1 296 299
M  V30 599 1 296 4782
M  V30 600 2 297 298
M  V30 601 1 297 302
M  V30 602 1 299 300
M  V30 603 1 299 301
M  V30 604 1 299 4783
M  V30 605 1 300 4784
M  V30 606 1 300 4785
M  V30 607 1 300 4786
M  V30 608 1 301 4787
M  V30 609 1 301 4788
M  V30 610 1 301 4789
M  V30 611 1 302 303
M  V30 612 1 302 4790
M  V30 613 1 303 304
M  V30 614 1 303 306
M  V30 615 1 303 4791
M  V30 616 2 304 305
M  V30 617 1 304 310
M  V30 618 1 306 307
M  V30 619 1 306 4792
M  V30 620 1 306 4793
M  V30 621 1 307 308
M  V30 622 1 307 309
M  V30 623 1 307 4794
M  V30 624 1 308 4795
M  V30 625 1 308 4796
M  V30 626 1 308 4797
M  V30 627 1 309 4798
M  V30 628 1 309 4799
M  V30 629 1 309 4800
M  V30 630 1 310 311
M  V30 631 1 310 4801
M  V30 632 1 311 312
M  V30 633 1 311 314
M  V30 634 1 311 4802
M  V30 635 2 312 313
M  V30 636 1 312 316
M  V30 637 1 314 315
M  V30 638 1 314 4803
M  V30 639 1 314 4804
M  V30 640 1 315 4805
M  V30 641 1 316 317
M  V30 642 1 316 4806
M  V30 643 1 317 318
M  V30 644 1 317 320
M  V30 645 1 317 4807
M  V30 646 2 318 319
M  V30 647 1 318 323
M  V30 648 1 320 321
M  V30 649 1 320 322
M  V30 650 1 320 4808
M  V30 651 1 321 4809
M  V30 652 1 321 4810
M  V30 653 1 321 4811
M  V30 654 1 322 4812
M  V30 655 1 322 4813
M  V30 656 1 322 4814
M  V30 657 1 323 324
M  V30 658 1 323 4815
M  V30 659 1 324 325
M  V30 660 1 324 327
M  V30 661 1 324 4816
M  V30 662 2 325 326
M  V30 663 1 325 331
M  V30 664 1 327 328
M  V30 665 1 327 4817
M  V30 666 1 327 4818
M  V30 667 1 328 329
M  V30 668 2 328 330
M  V30 669 1 329 4819
M  V30 670 1 329 4820
M  V30 671 1 331 332
M  V30 672 1 331 337
M  V30 673 1 332 333
M  V30 674 1 332 335
M  V30 675 1 332 4821
M  V30 676 2 333 334
M  V30 677 1 333 338
M  V30 678 1 335 336
M  V30 679 1 335 4822
M  V30 680 1 335 4823
M  V30 681 1 336 337
M  V30 682 1 336 4824
M  V30 683 1 336 4825
M  V30 684 1 337 4826
M  V30 685 1 337 4827
M  V30 686 1 338 339
M  V30 687 1 338 4828
M  V30 688 1 339 340
M  V30 689 1 339 342
M  V30 690 1 339 4829
M  V30 691 2 340 341
M  V30 692 1 340 350
M  V30 693 1 342 343
M  V30 694 1 342 4830
M  V30 695 1 342 4831
M  V30 696 2 343 344
M  V30 697 1 343 345
M  V30 698 1 344 346
M  V30 699 1 344 4832
M  V30 700 2 345 347
M  V30 701 1 345 4833
M  V30 702 2 346 348
M  V30 703 1 346 4834
M  V30 704 1 347 348
M  V30 705 1 347 4835
M  V30 706 1 348 349
M  V30 707 1 349 4836
M  V30 708 1 350 351
M  V30 709 1 350 4837
M  V30 710 1 351 352
M  V30 711 1 351 354
M  V30 712 1 351 4838
M  V30 713 2 352 353
M  V30 714 1 352 357
M  V30 715 1 354 355
M  V30 716 1 354 356
M  V30 717 1 354 4839
M  V30 718 1 355 4840
M  V30 719 1 355 4841
M  V30 720 1 355 4842
M  V30 721 1 356 4843
M  V30 722 1 356 4844
M  V30 723 1 356 4845
M  V30 724 1 357 358
M  V30 725 1 357 4846
M  V30 726 1 358 359
M  V30 727 1 358 361
M  V30 728 1 358 4847
M  V30 729 2 359 360
M  V30 730 1 359 363
M  V30 731 1 361 362
M  V30 732 1 361 4848
M  V30 733 1 361 4849
M  V30 734 1 362 4850
M  V30 735 1 363 364
M  V30 736 1 363 4851
M  V30 737 1 364 365
M  V30 738 1 364 367
M  V30 739 1 364 4852
M  V30 740 2 365 366
M  V30 741 1 365 371
M  V30 742 1 367 368
M  V30 743 1 367 4853
M  V30 744 1 367 4854
M  V30 745 1 368 369
M  V30 746 2 368 370
M  V30 747 1 369 4855
M  V30 748 1 369 4856
M  V30 749 1 371 372
M  V30 750 1 371 4857
M  V30 751 1 372 373
M  V30 752 1 372 375
M  V30 753 1 372 4858
M  V30 754 2 373 374
M  V30 755 1 373 376
M  V30 756 1 375 4859
M  V30 757 1 375 4860
M  V30 758 1 375 4861
M  V30 759 1 376 377
M  V30 760 1 376 382
M  V30 761 1 377 378
M  V30 762 1 377 380
M  V30 763 1 377 4862
M  V30 764 2 378 379
M  V30 765 1 378 383
M  V30 766 1 380 381
M  V30 767 1 380 4863
M  V30 768 1 380 4864
M  V30 769 1 381 382
M  V30 770 1 381 4865
M  V30 771 1 381 4866
M  V30 772 1 382 4867
M  V30 773 1 382 4868
M  V30 774 1 383 384
M  V30 775 1 383 4869
M  V30 776 1 384 385
M  V30 777 1 384 4870
M  V30 778 1 384 4871
M  V30 779 2 385 386
M  V30 780 1 385 387
M  V30 781 1 387 388
M  V30 782 1 387 4872
M  V30 783 1 388 389
M  V30 784 1 388 391
M  V30 785 1 388 4873
M  V30 786 2 389 390
M  V30 787 1 389 393
M  V30 788 1 391 392
M  V30 789 1 391 4874
M  V30 790 1 391 4875
M  V30 791 1 392 4876
M  V30 792 1 393 394
M  V30 793 1 393 4877
M  V30 794 1 394 395
M  V30 795 1 394 397
M  V30 796 1 394 4878
M  V30 797 2 395 396
M  V30 798 1 395 401
M  V30 799 1 397 398
M  V30 800 1 397 4879
M  V30 801 1 397 4880
M  V30 802 2 398 399
M  V30 803 1 398 400
M  V30 804 1 401 402
M  V30 805 1 401 4881
M  V30 806 1 402 403
M  V30 807 1 402 405
M  V30 808 1 402 4882
M  V30 809 2 403 404
M  V30 810 1 403 408
M  V30 811 1 405 406
M  V30 812 1 405 407
M  V30 813 1 405 4883
M  V30 814 1 406 4884
M  V30 815 1 406 4885
M  V30 816 1 406 4886
M  V30 817 1 407 4887
M  V30 818 1 407 4888
M  V30 819 1 407 4889
M  V30 820 1 408 409
M  V30 821 1 408 4890
M  V30 822 1 409 410
M  V30 823 1 409 412
M  V30 824 1 409 4891
M  V30 825 2 410 411
M  V30 826 1 410 415
M  V30 827 1 412 413
M  V30 828 1 412 414
M  V30 829 1 412 4892
M  V30 830 1 413 4893
M  V30 831 1 413 4894
M  V30 832 1 413 4895
M  V30 833 1 414 4896
M  V30 834 1 415 416
M  V30 835 1 415 4897
M  V30 836 1 416 417
M  V30 837 1 416 419
M  V30 838 1 416 4898
M  V30 839 2 417 418
M  V30 840 1 417 423
M  V30 841 1 419 420
M  V30 842 1 419 4899
M  V30 843 1 419 4900
M  V30 844 2 420 421
M  V30 845 1 420 422
M  V30 846 1 423 424
M  V30 847 1 423 4901
M  V30 848 1 424 425
M  V30 849 1 424 427
M  V30 850 1 424 4902
M  V30 851 2 425 426
M  V30 852 1 425 430
M  V30 853 1 427 428
M  V30 854 1 427 429
M  V30 855 1 427 4903
M  V30 856 1 428 4904
M  V30 857 1 428 4905
M  V30 858 1 428 4906
M  V30 859 1 429 4907
M  V30 860 1 429 4908
M  V30 861 1 429 4909
M  V30 862 1 430 431
M  V30 863 1 430 4910
M  V30 864 1 431 432
M  V30 865 1 431 434
M  V30 866 1 431 4911
M  V30 867 2 432 433
M  V30 868 1 432 437
M  V30 869 1 434 435
M  V30 870 1 434 436
M  V30 871 1 434 4912
M  V30 872 1 435 4913
M  V30 873 1 435 4914
M  V30 874 1 435 4915
M  V30 875 1 436 4916
M  V30 876 1 437 438
M  V30 877 1 437 4917
M  V30 878 1 438 439
M  V30 879 1 438 441
M  V30 880 1 438 4918
M  V30 881 2 439 440
M  V30 882 1 439 446
M  V30 883 1 441 442
M  V30 884 1 441 4919
M  V30 885 1 441 4920
M  V30 886 1 442 443
M  V30 887 1 442 4921
M  V30 888 1 442 4922
M  V30 889 1 443 444
M  V30 890 2 443 445
M  V30 891 1 444 4923
M  V30 892 1 444 4924
M  V30 893 1 446 447
M  V30 894 1 446 4925
M  V30 895 1 447 448
M  V30 896 1 447 450
M  V30 897 1 447 4926
M  V30 898 2 448 449
M  V30 899 1 448 454
M  V30 900 1 450 451
M  V30 901 1 450 4927
M  V30 902 1 450 4928
M  V30 903 1 451 452
M  V30 904 1 451 453
M  V30 905 1 451 4929
M  V30 906 1 452 4930
M  V30 907 1 452 4931
M  V30 908 1 452 4932
M  V30 909 1 453 4933
M  V30 910 1 453 4934
M  V30 911 1 453 4935
M  V30 912 1 454 455
M  V30 913 1 454 4936
M  V30 914 1 455 456
M  V30 915 1 455 458
M  V30 916 1 455 4937
M  V30 917 2 456 457
M  V30 918 1 456 466
M  V30 919 1 458 459
M  V30 920 1 458 4938
M  V30 921 1 458 4939
M  V30 922 2 459 460
M  V30 923 1 459 461
M  V30 924 1 460 462
M  V30 925 1 460 4940
M  V30 926 2 461 463
M  V30 927 1 461 4941
M  V30 928 2 462 464
M  V30 929 1 462 4942
M  V30 930 1 463 464
M  V30 931 1 463 4943
M  V30 932 1 464 465
M  V30 933 1 465 4944
M  V30 934 1 466 467
M  V30 935 1 466 4945
M  V30 936 1 467 468
M  V30 937 1 467 470
M  V30 938 1 467 4946
M  V30 939 2 468 469
M  V30 940 1 468 474
M  V30 941 1 470 471
M  V30 942 1 470 4947
M  V30 943 1 470 4948
M  V30 944 1 471 472
M  V30 945 1 471 473
M  V30 946 1 471 4949
M  V30 947 1 472 4950
M  V30 948 1 472 4951
M  V30 949 1 472 4952
M  V30 950 1 473 4953
M  V30 951 1 473 4954
M  V30 952 1 473 4955
M  V30 953 1 474 475
M  V30 954 1 474 4956
M  V30 955 1 475 476
M  V30 956 1 475 4957
M  V30 957 1 475 4958
M  V30 958 2 476 477
M  V30 959 1 476 478
M  V30 960 1 478 479
M  V30 961 1 478 4959
M  V30 962 1 479 480
M  V30 963 1 479 4960
M  V30 964 1 479 4961
M  V30 965 2 480 481
M  V30 966 1 480 482
M  V30 967 1 482 483
M  V30 968 1 482 4962
M  V30 969 1 483 484
M  V30 970 1 483 486
M  V30 971 1 483 4963
M  V30 972 2 484 485
M  V30 973 1 484 490
M  V30 974 1 486 487
M  V30 975 1 486 4964
M  V30 976 1 486 4965
M  V30 977 1 487 488
M  V30 978 1 487 4966
M  V30 979 1 487 4967
M  V30 980 1 488 489
M  V30 981 1 489 4968
M  V30 982 1 489 4969
M  V30 983 1 489 4970
M  V30 984 1 490 491
M  V30 985 1 490 4971
M  V30 986 1 491 492
M  V30 987 1 491 494
M  V30 988 1 491 4972
M  V30 989 2 492 493
M  V30 990 1 492 496
M  V30 991 1 494 495
M  V30 992 1 494 4973
M  V30 993 1 494 4974
M  V30 994 1 495 4975
M  V30 995 1 496 497
M  V30 996 1 496 4976
M  V30 997 1 497 498
M  V30 998 1 497 500
M  V30 999 1 497 4977
M  V30 1000 2 498 499
M  V30 1001 1 498 508
M  V30 1002 1 500 501
M  V30 1003 1 500 4978
M  V30 1004 1 500 4979
M  V30 1005 2 501 502
M  V30 1006 1 501 503
M  V30 1007 1 502 504
M  V30 1008 1 502 4980
M  V30 1009 2 503 505
M  V30 1010 1 503 4981
M  V30 1011 2 504 506
M  V30 1012 1 504 4982
M  V30 1013 1 505 506
M  V30 1014 1 505 4983
M  V30 1015 1 506 507
M  V30 1016 1 507 4984
M  V30 1017 1 508 509
M  V30 1018 1 508 4985
M  V30 1019 1 509 510
M  V30 1020 1 509 512
M  V30 1021 1 509 4986
M  V30 1022 2 510 511
M  V30 1023 1 510 520
M  V30 1024 1 512 513
M  V30 1025 1 512 4987
M  V30 1026 1 512 4988
M  V30 1027 2 513 514
M  V30 1028 1 513 515
M  V30 1029 1 514 516
M  V30 1030 1 514 4989
M  V30 1031 2 515 517
M  V30 1032 1 515 4990
M  V30 1033 2 516 518
M  V30 1034 1 516 4991
M  V30 1035 1 517 518
M  V30 1036 1 517 4992
M  V30 1037 1 518 519
M  V30 1038 1 519 4993
M  V30 1039 1 520 521
M  V30 1040 1 520 4994
M  V30 1041 1 521 522
M  V30 1042 1 521 524
M  V30 1043 1 521 4995
M  V30 1044 2 522 523
M  V30 1045 1 522 526
M  V30 1046 1 524 525
M  V30 1047 1 524 4996
M  V30 1048 1 524 4997
M  V30 1049 1 525 4998
M  V30 1050 1 526 527
M  V30 1051 1 526 4999
M  V30 1052 1 527 528
M  V30 1053 1 527 530
M  V30 1054 1 527 5000
M  V30 1055 2 528 529
M  V30 1056 1 528 535
M  V30 1057 1 530 531
M  V30 1058 1 530 5001
M  V30 1059 1 530 5002
M  V30 1060 1 531 532
M  V30 1061 1 531 5003
M  V30 1062 1 531 5004
M  V30 1063 1 532 533
M  V30 1064 1 532 5005
M  V30 1065 1 532 5006
M  V30 1066 1 533 534
M  V30 1067 1 533 5007
M  V30 1068 1 533 5008
M  V30 1069 1 534 5009
M  V30 1070 1 534 5010
M  V30 1071 1 534 5011
M  V30 1072 1 535 536
M  V30 1073 1 535 5012
M  V30 1074 1 536 537
M  V30 1075 1 536 539
M  V30 1076 1 536 5013
M  V30 1077 2 537 538
M  V30 1078 1 537 541
M  V30 1079 1 539 540
M  V30 1080 1 539 5014
M  V30 1081 1 539 5015
M  V30 1082 1 540 5016
M  V30 1083 1 541 542
M  V30 1084 1 541 5017
M  V30 1085 1 542 543
M  V30 1086 1 542 545
M  V30 1087 1 542 5018
M  V30 1088 2 543 544
M  V30 1089 1 543 551
M  V30 1090 1 545 546
M  V30 1091 1 545 5019
M  V30 1092 1 545 5020
M  V30 1093 2 546 547
M  V30 1094 1 546 548
M  V30 1095 1 547 550
M  V30 1096 1 547 5021
M  V30 1097 1 548 549
M  V30 1098 1 548 5022
M  V30 1099 2 549 550
M  V30 1100 1 549 5023
M  V30 1101 1 551 552
M  V30 1102 1 551 5024
M  V30 1103 1 552 553
M  V30 1104 1 552 555
M  V30 1105 1 552 5025
M  V30 1106 2 553 554
M  V30 1107 1 553 560
M  V30 1108 1 555 556
M  V30 1109 1 555 5026
M  V30 1110 1 555 5027
M  V30 1111 1 556 557
M  V30 1112 1 556 5028
M  V30 1113 1 556 5029
M  V30 1114 1 557 558
M  V30 1115 1 557 5030
M  V30 1116 1 557 5031
M  V30 1117 1 558 559
M  V30 1118 1 558 5032
M  V30 1119 1 558 5033
M  V30 1120 1 559 5034
M  V30 1121 1 559 5035
M  V30 1122 1 559 5036
M  V30 1123 1 560 561
M  V30 1124 1 560 566
M  V30 1125 1 561 562
M  V30 1126 1 561 564
M  V30 1127 1 561 5037
M  V30 1128 2 562 563
M  V30 1129 1 562 567
M  V30 1130 1 564 565
M  V30 1131 1 564 5038
M  V30 1132 1 564 5039
M  V30 1133 1 565 566
M  V30 1134 1 565 5040
M  V30 1135 1 565 5041
M  V30 1136 1 566 5042
M  V30 1137 1 566 5043
M  V30 1138 1 567 568
M  V30 1139 1 567 573
M  V30 1140 1 568 569
M  V30 1141 1 568 571
M  V30 1142 1 568 5044
M  V30 1143 2 569 570
M  V30 1144 1 569 574
M  V30 1145 1 571 572
M  V30 1146 1 571 5045
M  V30 1147 1 571 5046
M  V30 1148 1 572 573
M  V30 1149 1 572 5047
M  V30 1150 1 572 5048
M  V30 1151 1 573 5049
M  V30 1152 1 573 5050
M  V30 1153 1 574 575
M  V30 1154 1 574 5051
M  V30 1155 1 575 576
M  V30 1156 1 575 578
M  V30 1157 1 575 5052
M  V30 1158 2 576 577
M  V30 1159 1 576 582
M  V30 1160 1 578 579
M  V30 1161 1 578 580
M  V30 1162 1 578 5053
M  V30 1163 1 579 581
M  V30 1164 1 579 5054
M  V30 1165 1 579 5055
M  V30 1166 1 580 5056
M  V30 1167 1 580 5057
M  V30 1168 1 580 5058
M  V30 1169 1 581 5059
M  V30 1170 1 581 5060
M  V30 1171 1 581 5061
M  V30 1172 1 582 583
M  V30 1173 1 582 5062
M  V30 1174 1 583 584
M  V30 1175 1 583 586
M  V30 1176 1 583 5063
M  V30 1177 2 584 585
M  V30 1178 1 584 588
M  V30 1179 1 586 587
M  V30 1180 1 586 5064
M  V30 1181 1 586 5065
M  V30 1182 1 587 5066
M  V30 1183 1 588 589
M  V30 1184 1 588 5067
M  V30 1185 1 589 590
M  V30 1186 1 589 592
M  V30 1187 1 589 5068
M  V30 1188 2 590 591
M  V30 1189 1 590 599
M  V30 1190 1 592 593
M  V30 1191 1 592 5069
M  V30 1192 1 592 5070
M  V30 1193 2 593 594
M  V30 1194 1 593 595
M  V30 1195 1 594 596
M  V30 1196 1 594 5071
M  V30 1197 2 595 597
M  V30 1198 1 595 5072
M  V30 1199 2 596 598
M  V30 1200 1 596 5073
M  V30 1201 1 597 598
M  V30 1202 1 597 5074
M  V30 1203 1 598 5075
M  V30 1204 1 599 600
M  V30 1205 1 599 605
M  V30 1206 1 600 601
M  V30 1207 1 600 603
M  V30 1208 1 600 5076
M  V30 1209 2 601 602
M  V30 1210 1 601 606
M  V30 1211 1 603 604
M  V30 1212 1 603 5077
M  V30 1213 1 603 5078
M  V30 1214 1 604 605
M  V30 1215 1 604 5079
M  V30 1216 1 604 5080
M  V30 1217 1 605 5081
M  V30 1218 1 605 5082
M  V30 1219 1 606 607
M  V30 1220 1 606 5083
M  V30 1221 1 607 608
M  V30 1222 1 607 610
M  V30 1223 1 607 5084
M  V30 1224 2 608 609
M  V30 1225 1 608 614
M  V30 1226 1 610 611
M  V30 1227 1 610 5085
M  V30 1228 1 610 5086
M  V30 1229 1 611 612
M  V30 1230 1 611 613
M  V30 1231 1 611 5087
M  V30 1232 1 612 5088
M  V30 1233 1 612 5089
M  V30 1234 1 612 5090
M  V30 1235 1 613 5091
M  V30 1236 1 613 5092
M  V30 1237 1 613 5093
M  V30 1238 1 614 615
M  V30 1239 1 614 5094
M  V30 1240 1 615 616
M  V30 1241 1 615 618
M  V30 1242 1 615 5095
M  V30 1243 2 616 617
M  V30 1244 1 616 620
M  V30 1245 1 618 619
M  V30 1246 1 618 5096
M  V30 1247 1 618 5097
M  V30 1248 1 619 5098
M  V30 1249 1 620 621
M  V30 1250 1 620 5099
M  V30 1251 1 621 622
M  V30 1252 1 621 624
M  V30 1253 1 621 5100
M  V30 1254 2 622 623
M  V30 1255 1 622 625
M  V30 1256 1 624 5101
M  V30 1257 1 624 5102
M  V30 1258 1 624 5103
M  V30 1259 1 625 626
M  V30 1260 1 625 5104
M  V30 1261 1 626 627
M  V30 1262 1 626 629
M  V30 1263 1 626 5105
M  V30 1264 2 627 628
M  V30 1265 1 627 633
M  V30 1266 1 629 630
M  V30 1267 1 629 5106
M  V30 1268 1 629 5107
M  V30 1269 1 630 631
M  V30 1270 2 630 632
M  V30 1271 1 631 5108
M  V30 1272 1 631 5109
M  V30 1273 1 633 634
M  V30 1274 1 633 5110
M  V30 1275 1 634 635
M  V30 1276 1 634 5111
M  V30 1277 1 634 5112
M  V30 1278 2 635 636
M  V30 1279 1 635 637
M  V30 1280 1 637 638
M  V30 1281 1 637 5113
M  V30 1282 1 638 639
M  V30 1283 1 638 641
M  V30 1284 1 638 5114
M  V30 1285 2 639 640
M  V30 1286 1 639 646
M  V30 1287 1 641 642
M  V30 1288 1 641 5115
M  V30 1289 1 641 5116
M  V30 1290 1 642 643
M  V30 1291 1 642 5117
M  V30 1292 1 642 5118
M  V30 1293 1 643 644
M  V30 1294 2 643 645
M  V30 1295 1 644 5119
M  V30 1296 1 644 5120
M  V30 1297 1 646 647
M  V30 1298 1 646 5121
M  V30 1299 1 647 648
M  V30 1300 1 647 650
M  V30 1301 1 647 5122
M  V30 1302 2 648 649
M  V30 1303 1 648 653
M  V30 1304 1 650 651
M  V30 1305 1 650 652
M  V30 1306 1 650 5123
M  V30 1307 1 651 5124
M  V30 1308 1 651 5125
M  V30 1309 1 651 5126
M  V30 1310 1 652 5127
M  V30 1311 1 652 5128
M  V30 1312 1 652 5129
M  V30 1313 1 653 654
M  V30 1314 1 653 5130
M  V30 1315 1 654 655
M  V30 1316 1 654 657
M  V30 1317 1 654 5131
M  V30 1318 2 655 656
M  V30 1319 1 655 664
M  V30 1320 1 657 658
M  V30 1321 1 657 5132
M  V30 1322 1 657 5133
M  V30 1323 2 658 659
M  V30 1324 1 658 660
M  V30 1325 1 659 661
M  V30 1326 1 659 5134
M  V30 1327 2 660 662
M  V30 1328 1 660 5135
M  V30 1329 2 661 663
M  V30 1330 1 661 5136
M  V30 1331 1 662 663
M  V30 1332 1 662 5137
M  V30 1333 1 663 5138
M  V30 1334 1 664 665
M  V30 1335 1 664 5139
M  V30 1336 1 665 666
M  V30 1337 1 665 5140
M  V30 1338 1 665 5141
M  V30 1339 2 666 667
M  V30 1340 1 666 668
M  V30 1341 1 668 669
M  V30 1342 1 668 5142
M  V30 1343 1 669 670
M  V30 1344 1 669 672
M  V30 1345 1 669 5143
M  V30 1346 2 670 671
M  V30 1347 1 670 676
M  V30 1348 1 672 673
M  V30 1349 1 672 5144
M  V30 1350 1 672 5145
M  V30 1351 1 673 674
M  V30 1352 1 673 675
M  V30 1353 1 673 5146
M  V30 1354 1 674 5147
M  V30 1355 1 674 5148
M  V30 1356 1 674 5149
M  V30 1357 1 675 5150
M  V30 1358 1 675 5151
M  V30 1359 1 675 5152
M  V30 1360 1 676 677
M  V30 1361 1 676 5153
M  V30 1362 1 677 678
M  V30 1363 1 677 680
M  V30 1364 1 677 5154
M  V30 1365 2 678 679
M  V30 1366 1 678 688
M  V30 1367 1 680 681
M  V30 1368 1 680 5155
M  V30 1369 1 680 5156
M  V30 1370 2 681 682
M  V30 1371 1 681 683
M  V30 1372 1 682 684
M  V30 1373 1 682 5157
M  V30 1374 2 683 685
M  V30 1375 1 683 5158
M  V30 1376 2 684 686
M  V30 1377 1 684 5159
M  V30 1378 1 685 686
M  V30 1379 1 685 5160
M  V30 1380 1 686 687
M  V30 1381 1 687 5161
M  V30 1382 1 688 689
M  V30 1383 1 688 5162
M  V30 1384 1 689 690
M  V30 1385 1 689 5163
M  V30 1386 1 689 8928
M  V30 1387 2 690 691
M  V30 1388 1 690 692
M  V30 1389 1 692 693
M  V30 1390 1 692 5164
M  V30 1391 1 693 694
M  V30 1392 1 693 696
M  V30 1393 1 693 5165
M  V30 1394 2 694 695
M  V30 1395 1 694 700
M  V30 1396 1 696 697
M  V30 1397 1 696 5166
M  V30 1398 1 696 5167
M  V30 1399 1 697 698
M  V30 1400 2 697 699
M  V30 1401 1 698 5168
M  V30 1402 1 698 5169
M  V30 1403 1 700 701
M  V30 1404 1 700 5170
M  V30 1405 1 701 702
M  V30 1406 1 701 704
M  V30 1407 1 701 5171
M  V30 1408 2 702 703
M  V30 1409 1 702 707
M  V30 1410 1 704 705
M  V30 1411 1 704 706
M  V30 1412 1 704 5172
M  V30 1413 1 705 5173
M  V30 1414 1 705 5174
M  V30 1415 1 705 5175
M  V30 1416 1 706 5176
M  V30 1417 1 707 708
M  V30 1418 1 707 5177
M  V30 1419 1 708 709
M  V30 1420 1 708 711
M  V30 1421 1 708 5178
M  V30 1422 2 709 710
M  V30 1423 1 709 713
M  V30 1424 1 711 712
M  V30 1425 1 711 5179
M  V30 1426 1 711 5180
M  V30 1427 1 712 5181
M  V30 1428 1 713 714
M  V30 1429 1 713 5182
M  V30 1430 1 714 715
M  V30 1431 1 714 717
M  V30 1432 1 714 5183
M  V30 1433 2 715 716
M  V30 1434 1 715 720
M  V30 1435 1 717 718
M  V30 1436 1 717 719
M  V30 1437 1 717 5184
M  V30 1438 1 718 5185
M  V30 1439 1 718 5186
M  V30 1440 1 718 5187
M  V30 1441 1 719 5188
M  V30 1442 1 719 5189
M  V30 1443 1 719 5190
M  V30 1444 1 720 721
M  V30 1445 1 720 5191
M  V30 1446 1 721 722
M  V30 1447 1 721 5192
M  V30 1448 1 721 5193
M  V30 1449 2 722 723
M  V30 1450 1 722 724
M  V30 1451 1 724 725
M  V30 1452 1 724 5194
M  V30 1453 1 725 726
M  V30 1454 1 725 728
M  V30 1455 1 725 5195
M  V30 1456 2 726 727
M  V30 1457 1 726 730
M  V30 1458 1 728 729
M  V30 1459 1 728 5196
M  V30 1460 1 728 5197
M  V30 1461 1 729 5198
M  V30 1462 1 730 731
M  V30 1463 1 730 5199
M  V30 1464 1 731 732
M  V30 1465 1 731 5200
M  V30 1466 1 731 8944
M  V30 1467 2 732 733
M  V30 1468 1 732 734
M  V30 1469 1 734 735
M  V30 1470 1 734 5201
M  V30 1471 1 735 736
M  V30 1472 1 735 5202
M  V30 1473 1 735 8950
M  V30 1474 2 736 737
M  V30 1475 1 736 738
M  V30 1476 1 738 739
M  V30 1477 1 738 5203
M  V30 1478 1 739 740
M  V30 1479 1 739 742
M  V30 1480 1 739 5204
M  V30 1481 2 740 741
M  V30 1482 1 740 745
M  V30 1483 1 742 743
M  V30 1484 1 742 744
M  V30 1485 1 742 5205
M  V30 1486 1 743 5206
M  V30 1487 1 743 5207
M  V30 1488 1 743 5208
M  V30 1489 1 744 5209
M  V30 1490 1 744 5210
M  V30 1491 1 744 5211
M  V30 1492 1 745 746
M  V30 1493 1 745 5212
M  V30 1494 1 746 747
M  V30 1495 1 746 749
M  V30 1496 1 746 5213
M  V30 1497 2 747 748
M  V30 1498 1 747 752
M  V30 1499 1 749 750
M  V30 1500 1 749 751
M  V30 1501 1 749 5214
M  V30 1502 1 750 5215
M  V30 1503 1 750 5216
M  V30 1504 1 750 5217
M  V30 1505 1 751 5218
M  V30 1506 1 752 753
M  V30 1507 1 752 5219
M  V30 1508 1 753 754
M  V30 1509 1 753 756
M  V30 1510 1 753 5220
M  V30 1511 2 754 755
M  V30 1512 1 754 760
M  V30 1513 1 756 757
M  V30 1514 1 756 5221
M  V30 1515 1 756 5222
M  V30 1516 2 757 758
M  V30 1517 1 757 759
M  V30 1518 1 760 761
M  V30 1519 1 760 5223
M  V30 1520 1 761 762
M  V30 1521 1 761 764
M  V30 1522 1 761 5224
M  V30 1523 2 762 763
M  V30 1524 1 762 771
M  V30 1525 1 764 765
M  V30 1526 1 764 5225
M  V30 1527 1 764 5226
M  V30 1528 2 765 766
M  V30 1529 1 765 767
M  V30 1530 1 766 768
M  V30 1531 1 766 5227
M  V30 1532 2 767 769
M  V30 1533 1 767 5228
M  V30 1534 2 768 770
M  V30 1535 1 768 5229
M  V30 1536 1 769 770
M  V30 1537 1 769 5230
M  V30 1538 1 770 5231
M  V30 1539 1 771 772
M  V30 1540 1 771 5232
M  V30 1541 1 772 773
M  V30 1542 1 772 775
M  V30 1543 1 772 5233
M  V30 1544 2 773 774
M  V30 1545 1 773 779
M  V30 1546 1 775 776
M  V30 1547 1 775 5234
M  V30 1548 1 775 5235
M  V30 1549 1 776 777
M  V30 1550 2 776 778
M  V30 1551 1 777 5236
M  V30 1552 1 777 5237
M  V30 1553 1 779 780
M  V30 1554 1 779 5238
M  V30 1555 1 780 781
M  V30 1556 1 780 783
M  V30 1557 1 780 5239
M  V30 1558 2 781 782
M  V30 1559 1 781 784
M  V30 1560 1 783 5240
M  V30 1561 1 783 5241
M  V30 1562 1 783 5242
M  V30 1563 1 784 785
M  V30 1564 1 784 5243
M  V30 1565 1 785 786
M  V30 1566 1 785 788
M  V30 1567 1 785 5244
M  V30 1568 2 786 787
M  V30 1569 1 786 792
M  V30 1570 1 788 789
M  V30 1571 1 788 790
M  V30 1572 1 788 5245
M  V30 1573 1 789 791
M  V30 1574 1 789 5246
M  V30 1575 1 789 5247
M  V30 1576 1 790 5248
M  V30 1577 1 790 5249
M  V30 1578 1 790 5250
M  V30 1579 1 791 5251
M  V30 1580 1 791 5252
M  V30 1581 1 791 5253
M  V30 1582 1 792 793
M  V30 1583 1 792 5254
M  V30 1584 1 793 794
M  V30 1585 1 793 796
M  V30 1586 1 793 5255
M  V30 1587 2 794 795
M  V30 1588 1 794 797
M  V30 1589 1 796 5256
M  V30 1590 1 796 5257
M  V30 1591 1 796 5258
M  V30 1592 1 797 798
M  V30 1593 1 797 5259
M  V30 1594 1 798 799
M  V30 1595 1 798 801
M  V30 1596 1 798 5260
M  V30 1597 2 799 800
M  V30 1598 1 799 804
M  V30 1599 1 801 802
M  V30 1600 1 801 803
M  V30 1601 1 801 5261
M  V30 1602 1 802 5262
M  V30 1603 1 802 5263
M  V30 1604 1 802 5264
M  V30 1605 1 803 5265
M  V30 1606 1 804 805
M  V30 1607 1 804 5266
M  V30 1608 1 805 806
M  V30 1609 1 805 808
M  V30 1610 1 805 5267
M  V30 1611 2 806 807
M  V30 1612 1 806 810
M  V30 1613 1 808 809
M  V30 1614 1 808 5268
M  V30 1615 1 808 5269
M  V30 1616 1 809 5270
M  V30 1617 1 810 811
M  V30 1618 1 810 5271
M  V30 1619 1 811 812
M  V30 1620 1 811 814
M  V30 1621 1 811 5272
M  V30 1622 2 812 813
M  V30 1623 1 812 818
M  V30 1624 1 814 815
M  V30 1625 1 814 5273
M  V30 1626 1 814 5274
M  V30 1627 2 815 816
M  V30 1628 1 815 817
M  V30 1629 1 818 819
M  V30 1630 1 818 5275
M  V30 1631 1 819 820
M  V30 1632 1 819 822
M  V30 1633 1 819 5276
M  V30 1634 2 820 821
M  V30 1635 1 820 832
M  V30 1636 1 822 823
M  V30 1637 1 822 5277
M  V30 1638 1 822 5278
M  V30 1639 2 823 824
M  V30 1640 1 823 825
M  V30 1641 1 824 828
M  V30 1642 1 824 5279
M  V30 1643 2 825 826
M  V30 1644 1 825 827
M  V30 1645 1 826 828
M  V30 1646 1 826 829
M  V30 1647 2 827 830
M  V30 1648 1 827 5280
M  V30 1649 1 828 5281
M  V30 1650 2 829 831
M  V30 1651 1 829 5282
M  V30 1652 1 830 831
M  V30 1653 1 830 5283
M  V30 1654 1 831 5284
M  V30 1655 1 832 833
M  V30 1656 1 832 5285
M  V30 1657 1 833 834
M  V30 1658 1 833 836
M  V30 1659 1 833 5286
M  V30 1660 2 834 835
M  V30 1661 1 834 839
M  V30 1662 1 836 837
M  V30 1663 1 836 838
M  V30 1664 1 836 5287
M  V30 1665 1 837 5288
M  V30 1666 1 837 5289
M  V30 1667 1 837 5290
M  V30 1668 1 838 5291
M  V30 1669 1 839 840
M  V30 1670 1 839 5292
M  V30 1671 1 840 841
M  V30 1672 1 840 843
M  V30 1673 1 840 5293
M  V30 1674 2 841 842
M  V30 1675 1 841 847
M  V30 1676 1 843 844
M  V30 1677 1 843 5294
M  V30 1678 1 843 5295
M  V30 1679 1 844 845
M  V30 1680 2 844 846
M  V30 1681 1 845 5296
M  V30 1682 1 845 5297
M  V30 1683 1 847 848
M  V30 1684 1 847 5298
M  V30 1685 1 848 849
M  V30 1686 1 848 851
M  V30 1687 1 848 5299
M  V30 1688 2 849 850
M  V30 1689 1 849 852
M  V30 1690 1 851 5300
M  V30 1691 1 851 5301
M  V30 1692 1 851 5302
M  V30 1693 1 852 853
M  V30 1694 1 852 5303
M  V30 1695 1 853 854
M  V30 1696 1 853 5304
M  V30 1697 1 853 5305
M  V30 1698 2 854 855
M  V30 1699 1 854 856
M  V30 1700 1 856 857
M  V30 1701 1 856 5306
M  V30 1702 1 857 858
M  V30 1703 1 857 860
M  V30 1704 1 857 5307
M  V30 1705 2 858 859
M  V30 1706 1 858 864
M  V30 1707 1 860 861
M  V30 1708 1 860 5308
M  V30 1709 1 860 5309
M  V30 1710 2 861 862
M  V30 1711 1 861 863
M  V30 1712 1 864 865
M  V30 1713 1 864 5310
M  V30 1714 1 865 866
M  V30 1715 1 865 868
M  V30 1716 1 865 5311
M  V30 1717 2 866 867
M  V30 1718 1 866 876
M  V30 1719 1 868 869
M  V30 1720 1 868 5312
M  V30 1721 1 868 5313
M  V30 1722 2 869 870
M  V30 1723 1 869 871
M  V30 1724 1 870 872
M  V30 1725 1 870 5314
M  V30 1726 2 871 873
M  V30 1727 1 871 5315
M  V30 1728 2 872 874
M  V30 1729 1 872 5316
M  V30 1730 1 873 874
M  V30 1731 1 873 5317
M  V30 1732 1 874 875
M  V30 1733 1 875 5318
M  V30 1734 1 876 877
M  V30 1735 1 876 5319
M  V30 1736 1 877 878
M  V30 1737 1 877 880
M  V30 1738 1 877 5320
M  V30 1739 2 878 879
M  V30 1740 1 878 884
M  V30 1741 1 880 881
M  V30 1742 1 880 882
M  V30 1743 1 880 5321
M  V30 1744 1 881 883
M  V30 1745 1 881 5322
M  V30 1746 1 881 5323
M  V30 1747 1 882 5324
M  V30 1748 1 882 5325
M  V30 1749 1 882 5326
M  V30 1750 1 883 5327
M  V30 1751 1 883 5328
M  V30 1752 1 883 5329
M  V30 1753 1 884 885
M  V30 1754 1 884 5330
M  V30 1755 1 885 886
M  V30 1756 1 885 888
M  V30 1757 1 885 5331
M  V30 1758 2 886 887
M  V30 1759 1 886 892
M  V30 1760 1 888 889
M  V30 1761 1 888 5332
M  V30 1762 1 888 5333
M  V30 1763 1 889 890
M  V30 1764 1 889 891
M  V30 1765 1 889 5334
M  V30 1766 1 890 5335
M  V30 1767 1 890 5336
M  V30 1768 1 890 5337
M  V30 1769 1 891 5338
M  V30 1770 1 891 5339
M  V30 1771 1 891 5340
M  V30 1772 1 892 893
M  V30 1773 1 892 5341
M  V30 1774 1 893 894
M  V30 1775 1 893 896
M  V30 1776 1 893 5342
M  V30 1777 2 894 895
M  V30 1778 1 894 897
M  V30 1779 1 896 5343
M  V30 1780 1 896 5344
M  V30 1781 1 896 5345
M  V30 1782 1 897 898
M  V30 1783 1 897 5346
M  V30 1784 1 898 899
M  V30 1785 1 898 901
M  V30 1786 1 898 5347
M  V30 1787 2 899 900
M  V30 1788 1 899 905
M  V30 1789 1 901 902
M  V30 1790 1 901 5348
M  V30 1791 1 901 5349
M  V30 1792 1 902 903
M  V30 1793 2 902 904
M  V30 1794 1 903 5350
M  V30 1795 1 903 5351
M  V30 1796 1 905 906
M  V30 1797 1 905 5352
M  V30 1798 1 906 907
M  V30 1799 1 906 909
M  V30 1800 1 906 5353
M  V30 1801 2 907 908
M  V30 1802 1 907 912
M  V30 1803 1 909 910
M  V30 1804 1 909 911
M  V30 1805 1 909 5354
M  V30 1806 1 910 5355
M  V30 1807 1 910 5356
M  V30 1808 1 910 5357
M  V30 1809 1 911 5358
M  V30 1810 1 912 913
M  V30 1811 1 912 5359
M  V30 1812 1 913 914
M  V30 1813 1 913 916
M  V30 1814 1 913 5360
M  V30 1815 2 914 915
M  V30 1816 1 914 918
M  V30 1817 1 916 917
M  V30 1818 1 916 5361
M  V30 1819 1 916 5362
M  V30 1820 1 917 5363
M  V30 1821 1 918 919
M  V30 1822 1 918 5364
M  V30 1823 1 919 920
M  V30 1824 1 919 922
M  V30 1825 1 919 5365
M  V30 1826 2 920 921
M  V30 1827 1 920 925
M  V30 1828 1 922 923
M  V30 1829 1 922 924
M  V30 1830 1 922 5366
M  V30 1831 1 923 5367
M  V30 1832 1 923 5368
M  V30 1833 1 923 5369
M  V30 1834 1 924 5370
M  V30 1835 1 925 926
M  V30 1836 1 925 5371
M  V30 1837 1 926 927
M  V30 1838 1 926 929
M  V30 1839 1 926 5372
M  V30 1840 2 927 928
M  V30 1841 1 927 934
M  V30 1842 1 929 930
M  V30 1843 1 929 5373
M  V30 1844 1 929 5374
M  V30 1845 1 930 931
M  V30 1846 1 930 5375
M  V30 1847 1 930 5376
M  V30 1848 2 931 932
M  V30 1849 1 931 933
M  V30 1850 1 934 935
M  V30 1851 1 934 5377
M  V30 1852 1 935 936
M  V30 1853 1 935 938
M  V30 1854 1 935 5378
M  V30 1855 2 936 937
M  V30 1856 1 936 945
M  V30 1857 1 938 939
M  V30 1858 1 938 5379
M  V30 1859 1 938 5380
M  V30 1860 1 939 940
M  V30 1861 1 939 5381
M  V30 1862 1 939 5382
M  V30 1863 1 940 941
M  V30 1864 1 940 5383
M  V30 1865 1 940 5384
M  V30 1866 1 941 942
M  V30 1867 1 941 5385
M  V30 1868 1 942 943
M  V30 1869 2 942 944
M  V30 1870 1 943 5386
M  V30 1871 1 943 5387
M  V30 1872 1 944 5388
M  V30 1873 1 944 5389
M  V30 1874 1 945 946
M  V30 1875 1 945 5390
M  V30 1876 1 946 947
M  V30 1877 1 946 949
M  V30 1878 1 946 5391
M  V30 1879 2 947 948
M  V30 1880 1 947 953
M  V30 1881 1 949 950
M  V30 1882 1 949 5392
M  V30 1883 1 949 5393
M  V30 1884 1 950 951
M  V30 1885 1 950 952
M  V30 1886 1 950 5394
M  V30 1887 1 951 5395
M  V30 1888 1 951 5396
M  V30 1889 1 951 5397
M  V30 1890 1 952 5398
M  V30 1891 1 952 5399
M  V30 1892 1 952 5400
M  V30 1893 1 953 954
M  V30 1894 1 953 5401
M  V30 1895 1 954 955
M  V30 1896 1 954 957
M  V30 1897 1 954 5402
M  V30 1898 2 955 956
M  V30 1899 1 955 962
M  V30 1900 1 957 958
M  V30 1901 1 957 5403
M  V30 1902 1 957 5404
M  V30 1903 1 958 959
M  V30 1904 1 958 5405
M  V30 1905 1 958 5406
M  V30 1906 1 959 960
M  V30 1907 1 959 5407
M  V30 1908 1 959 5408
M  V30 1909 1 960 961
M  V30 1910 1 960 5409
M  V30 1911 1 960 5410
M  V30 1912 1 961 5411
M  V30 1913 1 961 5412
M  V30 1914 1 961 5413
M  V30 1915 1 962 963
M  V30 1916 1 962 5414
M  V30 1917 1 963 964
M  V30 1918 1 963 966
M  V30 1919 1 963 5415
M  V30 1920 2 964 965
M  V30 1921 1 964 970
M  V30 1922 1 966 967
M  V30 1923 1 966 5416
M  V30 1924 1 966 5417
M  V30 1925 1 967 968
M  V30 1926 1 967 969
M  V30 1927 1 967 5418
M  V30 1928 1 968 5419
M  V30 1929 1 968 5420
M  V30 1930 1 968 5421
M  V30 1931 1 969 5422
M  V30 1932 1 969 5423
M  V30 1933 1 969 5424
M  V30 1934 1 970 971
M  V30 1935 1 970 5425
M  V30 1936 1 971 972
M  V30 1937 1 971 974
M  V30 1938 1 971 5426
M  V30 1939 2 972 973
M  V30 1940 1 972 981
M  V30 1941 1 974 975
M  V30 1942 1 974 5427
M  V30 1943 1 974 5428
M  V30 1944 2 975 976
M  V30 1945 1 975 977
M  V30 1946 1 976 978
M  V30 1947 1 976 5429
M  V30 1948 2 977 979
M  V30 1949 1 977 5430
M  V30 1950 2 978 980
M  V30 1951 1 978 5431
M  V30 1952 1 979 980
M  V30 1953 1 979 5432
M  V30 1954 1 980 5433
M  V30 1955 1 981 982
M  V30 1956 1 981 5434
M  V30 1957 1 982 983
M  V30 1958 1 982 985
M  V30 1959 1 982 5435
M  V30 1960 2 983 984
M  V30 1961 1 983 986
M  V30 1962 1 985 5436
M  V30 1963 1 985 5437
M  V30 1964 1 985 5438
M  V30 1965 1 986 987
M  V30 1966 1 986 5439
M  V30 1967 1 987 988
M  V30 1968 1 987 990
M  V30 1969 1 987 5440
M  V30 1970 2 988 989
M  V30 1971 1 988 991
M  V30 1972 1 990 5441
M  V30 1973 1 990 5442
M  V30 1974 1 990 5443
M  V30 1975 1 991 992
M  V30 1976 1 991 5444
M  V30 1977 1 992 993
M  V30 1978 1 992 995
M  V30 1979 1 992 5445
M  V30 1980 2 993 994
M  V30 1981 1 993 1000
M  V30 1982 1 995 996
M  V30 1983 1 995 5446
M  V30 1984 1 995 5447
M  V30 1985 1 996 997
M  V30 1986 1 996 5448
M  V30 1987 1 996 5449
M  V30 1988 2 997 998
M  V30 1989 1 997 999
M  V30 1990 1 1000 1001
M  V30 1991 1 1000 5450
M  V30 1992 1 1001 1002
M  V30 1993 1 1001 1004
M  V30 1994 1 1001 5451
M  V30 1995 2 1002 1003
M  V30 1996 1 1002 1007
M  V30 1997 1 1004 1005
M  V30 1998 1 1004 1006
M  V30 1999 1 1004 5452
M  V30 2000 1 1005 5453
M  V30 2001 1 1005 5454
M  V30 2002 1 1005 5455
M  V30 2003 1 1006 5456
M  V30 2004 1 1007 1008
M  V30 2005 1 1007 5457
M  V30 2006 1 1008 1009
M  V30 2007 1 1008 1011
M  V30 2008 1 1008 5458
M  V30 2009 2 1009 1010
M  V30 2010 1 1009 1015
M  V30 2011 1 1011 1012
M  V30 2012 1 1011 5459
M  V30 2013 1 1011 5460
M  V30 2014 1 1012 1013
M  V30 2015 1 1012 1014
M  V30 2016 1 1012 5461
M  V30 2017 1 1013 5462
M  V30 2018 1 1013 5463
M  V30 2019 1 1013 5464
M  V30 2020 1 1014 5465
M  V30 2021 1 1014 5466
M  V30 2022 1 1014 5467
M  V30 2023 1 1015 1016
M  V30 2024 1 1015 5468
M  V30 2025 1 1016 1017
M  V30 2026 1 1016 1019
M  V30 2027 1 1016 5469
M  V30 2028 2 1017 1018
M  V30 2029 1 1017 1024
M  V30 2030 1 1019 1020
M  V30 2031 1 1019 5470
M  V30 2032 1 1019 5471
M  V30 2033 1 1020 1021
M  V30 2034 1 1020 5472
M  V30 2035 1 1020 5473
M  V30 2036 1 1021 1022
M  V30 2037 1 1021 5474
M  V30 2038 1 1021 5475
M  V30 2039 1 1022 1023
M  V30 2040 1 1022 5476
M  V30 2041 1 1022 5477
M  V30 2042 1 1023 5478
M  V30 2043 1 1023 5479
M  V30 2044 1 1023 5480
M  V30 2045 1 1024 1025
M  V30 2046 1 1024 5481
M  V30 2047 1 1025 1026
M  V30 2048 1 1025 1028
M  V30 2049 1 1025 5482
M  V30 2050 2 1026 1027
M  V30 2051 1 1026 1029
M  V30 2052 1 1028 5483
M  V30 2053 1 1028 5484
M  V30 2054 1 1028 5485
M  V30 2055 1 1029 1030
M  V30 2056 1 1029 5486
M  V30 2057 1 1030 1031
M  V30 2058 1 1030 1033
M  V30 2059 1 1030 5487
M  V30 2060 2 1031 1032
M  V30 2061 1 1031 1036
M  V30 2062 1 1033 1034
M  V30 2063 1 1033 1035
M  V30 2064 1 1033 5488
M  V30 2065 1 1034 5489
M  V30 2066 1 1034 5490
M  V30 2067 1 1034 5491
M  V30 2068 1 1035 5492
M  V30 2069 1 1036 1037
M  V30 2070 1 1036 5493
M  V30 2071 1 1037 1038
M  V30 2072 1 1037 1040
M  V30 2073 1 1037 5494
M  V30 2074 2 1038 1039
M  V30 2075 1 1038 1045
M  V30 2076 1 1040 1041
M  V30 2077 1 1040 5495
M  V30 2078 1 1040 5496
M  V30 2079 1 1041 1042
M  V30 2080 1 1041 5497
M  V30 2081 1 1041 5498
M  V30 2082 2 1042 1043
M  V30 2083 1 1042 1044
M  V30 2084 1 1045 1046
M  V30 2085 1 1045 5499
M  V30 2086 1 1046 1047
M  V30 2087 1 1046 1049
M  V30 2088 1 1046 5500
M  V30 2089 2 1047 1048
M  V30 2090 1 1047 1054
M  V30 2091 1 1049 1050
M  V30 2092 1 1049 5501
M  V30 2093 1 1049 5502
M  V30 2094 1 1050 1051
M  V30 2095 1 1050 5503
M  V30 2096 1 1050 5504
M  V30 2097 2 1051 1052
M  V30 2098 1 1051 1053
M  V30 2099 1 1054 1055
M  V30 2100 1 1054 5505
M  V30 2101 1 1055 1056
M  V30 2102 1 1055 1058
M  V30 2103 1 1055 5506
M  V30 2104 2 1056 1057
M  V30 2105 1 1056 1061
M  V30 2106 1 1058 1059
M  V30 2107 1 1058 1060
M  V30 2108 1 1058 5507
M  V30 2109 1 1059 5508
M  V30 2110 1 1059 5509
M  V30 2111 1 1059 5510
M  V30 2112 1 1060 5511
M  V30 2113 1 1061 1062
M  V30 2114 1 1061 5512
M  V30 2115 1 1062 1063
M  V30 2116 1 1062 1065
M  V30 2117 1 1062 5513
M  V30 2118 2 1063 1064
M  V30 2119 1 1063 1072
M  V30 2120 1 1065 1066
M  V30 2121 1 1065 5514
M  V30 2122 1 1065 5515
M  V30 2123 2 1066 1067
M  V30 2124 1 1066 1068
M  V30 2125 1 1067 1069
M  V30 2126 1 1067 5516
M  V30 2127 2 1068 1070
M  V30 2128 1 1068 5517
M  V30 2129 2 1069 1071
M  V30 2130 1 1069 5518
M  V30 2131 1 1070 1071
M  V30 2132 1 1070 5519
M  V30 2133 1 1071 5520
M  V30 2134 1 1072 1073
M  V30 2135 1 1072 5521
M  V30 2136 1 1073 1074
M  V30 2137 1 1073 1076
M  V30 2138 1 1073 5522
M  V30 2139 2 1074 1075
M  V30 2140 1 1074 1081
M  V30 2141 1 1076 1077
M  V30 2142 1 1076 5523
M  V30 2143 1 1076 5524
M  V30 2144 1 1077 1078
M  V30 2145 1 1077 5525
M  V30 2146 1 1077 5526
M  V30 2147 1 1078 1079
M  V30 2148 1 1078 5527
M  V30 2149 1 1078 5528
M  V30 2150 1 1079 1080
M  V30 2151 1 1079 5529
M  V30 2152 1 1079 5530
M  V30 2153 1 1080 5531
M  V30 2154 1 1080 5532
M  V30 2155 1 1080 5533
M  V30 2156 1 1081 1082
M  V30 2157 1 1081 5534
M  V30 2158 1 1082 1083
M  V30 2159 1 1082 1085
M  V30 2160 1 1082 5535
M  V30 2161 2 1083 1084
M  V30 2162 1 1083 1089
M  V30 2163 1 1085 1086
M  V30 2164 1 1085 5536
M  V30 2165 1 1085 5537
M  V30 2166 1 1086 1087
M  V30 2167 1 1086 1088
M  V30 2168 1 1086 5538
M  V30 2169 1 1087 5539
M  V30 2170 1 1087 5540
M  V30 2171 1 1087 5541
M  V30 2172 1 1088 5542
M  V30 2173 1 1088 5543
M  V30 2174 1 1088 5544
M  V30 2175 1 1089 1090
M  V30 2176 1 1089 5545
M  V30 2177 1 1090 1091
M  V30 2178 1 1090 1093
M  V30 2179 1 1090 5546
M  V30 2180 2 1091 1092
M  V30 2181 1 1091 1095
M  V30 2182 1 1093 1094
M  V30 2183 1 1093 5547
M  V30 2184 1 1093 5548
M  V30 2185 1 1094 5549
M  V30 2186 1 1095 1096
M  V30 2187 1 1095 5550
M  V30 2188 1 1096 1097
M  V30 2189 1 1096 1099
M  V30 2190 1 1096 5551
M  V30 2191 2 1097 1098
M  V30 2192 1 1097 1107
M  V30 2193 1 1099 1100
M  V30 2194 1 1099 5552
M  V30 2195 1 1099 5553
M  V30 2196 2 1100 1101
M  V30 2197 1 1100 1102
M  V30 2198 1 1101 1103
M  V30 2199 1 1101 5554
M  V30 2200 2 1102 1104
M  V30 2201 1 1102 5555
M  V30 2202 2 1103 1105
M  V30 2203 1 1103 5556
M  V30 2204 1 1104 1105
M  V30 2205 1 1104 5557
M  V30 2206 1 1105 1106
M  V30 2207 1 1106 5558
M  V30 2208 1 1107 1108
M  V30 2209 1 1107 5559
M  V30 2210 1 1108 1109
M  V30 2211 1 1108 5560
M  V30 2212 1 1108 5561
M  V30 2213 2 1109 1110
M  V30 2214 1 1109 1111
M  V30 2215 1 1111 1112
M  V30 2216 1 1111 5562
M  V30 2217 1 1112 1113
M  V30 2218 1 1112 1115
M  V30 2219 1 1112 5563
M  V30 2220 2 1113 1114
M  V30 2221 1 1113 1119
M  V30 2222 1 1115 1116
M  V30 2223 1 1115 1117
M  V30 2224 1 1115 5564
M  V30 2225 1 1116 1118
M  V30 2226 1 1116 5565
M  V30 2227 1 1116 5566
M  V30 2228 1 1117 5567
M  V30 2229 1 1117 5568
M  V30 2230 1 1117 5569
M  V30 2231 1 1118 5570
M  V30 2232 1 1118 5571
M  V30 2233 1 1118 5572
M  V30 2234 1 1119 1120
M  V30 2235 1 1119 5573
M  V30 2236 1 1120 1121
M  V30 2237 1 1120 1123
M  V30 2238 1 1120 5574
M  V30 2239 2 1121 1122
M  V30 2240 1 1121 1124
M  V30 2241 1 1123 5575
M  V30 2242 1 1123 5576
M  V30 2243 1 1123 5577
M  V30 2244 1 1124 1125
M  V30 2245 1 1124 5578
M  V30 2246 1 1125 1126
M  V30 2247 1 1125 1128
M  V30 2248 1 1125 5579
M  V30 2249 2 1126 1127
M  V30 2250 1 1126 1131
M  V30 2251 1 1128 1129
M  V30 2252 1 1128 1130
M  V30 2253 1 1128 5580
M  V30 2254 1 1129 5581
M  V30 2255 1 1129 5582
M  V30 2256 1 1129 5583
M  V30 2257 1 1130 5584
M  V30 2258 1 1131 1132
M  V30 2259 1 1131 5585
M  V30 2260 1 1132 1133
M  V30 2261 1 1132 1135
M  V30 2262 1 1132 5586
M  V30 2263 2 1133 1134
M  V30 2264 1 1133 1138
M  V30 2265 1 1135 1136
M  V30 2266 1 1135 1137
M  V30 2267 1 1135 5587
M  V30 2268 1 1136 5588
M  V30 2269 1 1136 5589
M  V30 2270 1 1136 5590
M  V30 2271 1 1137 5591
M  V30 2272 1 1137 5592
M  V30 2273 1 1137 5593
M  V30 2274 1 1138 1139
M  V30 2275 1 1138 5594
M  V30 2276 1 1139 1140
M  V30 2277 1 1139 1142
M  V30 2278 1 1139 5595
M  V30 2279 2 1140 1141
M  V30 2280 1 1140 1149
M  V30 2281 1 1142 1143
M  V30 2282 1 1142 5596
M  V30 2283 1 1142 5597
M  V30 2284 1 1143 1144
M  V30 2285 1 1143 5598
M  V30 2286 1 1143 5599
M  V30 2287 1 1144 1145
M  V30 2288 1 1144 5600
M  V30 2289 1 1144 5601
M  V30 2290 1 1145 1146
M  V30 2291 1 1145 5602
M  V30 2292 1 1146 1147
M  V30 2293 2 1146 1148
M  V30 2294 1 1147 5603
M  V30 2295 1 1147 5604
M  V30 2296 1 1148 5605
M  V30 2297 1 1148 5606
M  V30 2298 1 1149 1150
M  V30 2299 1 1149 5607
M  V30 2300 1 1150 1151
M  V30 2301 1 1150 1153
M  V30 2302 1 1150 5608
M  V30 2303 2 1151 1152
M  V30 2304 1 1151 1158
M  V30 2305 1 1153 1154
M  V30 2306 1 1153 5609
M  V30 2307 1 1153 5610
M  V30 2308 1 1154 1155
M  V30 2309 1 1154 5611
M  V30 2310 1 1154 5612
M  V30 2311 2 1155 1156
M  V30 2312 1 1155 1157
M  V30 2313 1 1158 1159
M  V30 2314 1 1158 5613
M  V30 2315 1 1159 1160
M  V30 2316 1 1159 1162
M  V30 2317 1 1159 5614
M  V30 2318 2 1160 1161
M  V30 2319 1 1160 1165
M  V30 2320 1 1162 1163
M  V30 2321 1 1162 1164
M  V30 2322 1 1162 5615
M  V30 2323 1 1163 5616
M  V30 2324 1 1163 5617
M  V30 2325 1 1163 5618
M  V30 2326 1 1164 5619
M  V30 2327 1 1164 5620
M  V30 2328 1 1164 5621
M  V30 2329 1 1165 1166
M  V30 2330 1 1165 5622
M  V30 2331 1 1166 1167
M  V30 2332 1 1166 1169
M  V30 2333 1 1166 5623
M  V30 2334 2 1167 1168
M  V30 2335 1 1167 1173
M  V30 2336 1 1169 1170
M  V30 2337 1 1169 5624
M  V30 2338 1 1169 5625
M  V30 2339 1 1170 1171
M  V30 2340 1 1170 1172
M  V30 2341 1 1170 5626
M  V30 2342 1 1171 5627
M  V30 2343 1 1171 5628
M  V30 2344 1 1171 5629
M  V30 2345 1 1172 5630
M  V30 2346 1 1172 5631
M  V30 2347 1 1172 5632
M  V30 2348 1 1173 1174
M  V30 2349 1 1173 5633
M  V30 2350 1 1174 1175
M  V30 2351 1 1174 1177
M  V30 2352 1 1174 5634
M  V30 2353 2 1175 1176
M  V30 2354 1 1175 1179
M  V30 2355 1 1177 1178
M  V30 2356 1 1177 5635
M  V30 2357 1 1177 5636
M  V30 2358 1 1178 5637
M  V30 2359 1 1179 1180
M  V30 2360 1 1179 5638
M  V30 2361 1 1180 1181
M  V30 2362 1 1180 1183
M  V30 2363 1 1180 5639
M  V30 2364 2 1181 1182
M  V30 2365 1 1181 1187
M  V30 2366 1 1183 1184
M  V30 2367 1 1183 5640
M  V30 2368 1 1183 5641
M  V30 2369 2 1184 1185
M  V30 2370 1 1184 1186
M  V30 2371 1 1187 1188
M  V30 2372 1 1187 5642
M  V30 2373 1 1188 1189
M  V30 2374 1 1188 5643
M  V30 2375 1 1188 8958
M  V30 2376 2 1189 1190
M  V30 2377 1 1189 1191
M  V30 2378 1 1191 1192
M  V30 2379 1 1191 5644
M  V30 2380 1 1192 1193
M  V30 2381 1 1192 1195
M  V30 2382 1 1192 5645
M  V30 2383 2 1193 1194
M  V30 2384 1 1193 1200
M  V30 2385 1 1195 1196
M  V30 2386 1 1195 5646
M  V30 2387 1 1195 5647
M  V30 2388 1 1196 1197
M  V30 2389 1 1196 5648
M  V30 2390 1 1196 5649
M  V30 2391 2 1197 1198
M  V30 2392 1 1197 1199
M  V30 2393 1 1200 1201
M  V30 2394 1 1200 5650
M  V30 2395 1 1201 1202
M  V30 2396 1 1201 1204
M  V30 2397 1 1201 5651
M  V30 2398 2 1202 1203
M  V30 2399 1 1202 1208
M  V30 2400 1 1204 1205
M  V30 2401 1 1204 5652
M  V30 2402 1 1204 5653
M  V30 2403 1 1205 1206
M  V30 2404 1 1205 1207
M  V30 2405 1 1205 5654
M  V30 2406 1 1206 5655
M  V30 2407 1 1206 5656
M  V30 2408 1 1206 5657
M  V30 2409 1 1207 5658
M  V30 2410 1 1207 5659
M  V30 2411 1 1207 5660
M  V30 2412 1 1208 1209
M  V30 2413 1 1208 5661
M  V30 2414 1 1209 1210
M  V30 2415 1 1209 1212
M  V30 2416 1 1209 5662
M  V30 2417 2 1210 1211
M  V30 2418 1 1210 1218
M  V30 2419 1 1212 1213
M  V30 2420 1 1212 5663
M  V30 2421 1 1212 5664
M  V30 2422 2 1213 1214
M  V30 2423 1 1213 1215
M  V30 2424 1 1214 1217
M  V30 2425 1 1214 5665
M  V30 2426 2 1215 1216
M  V30 2427 1 1216 1217
M  V30 2428 1 1216 5666
M  V30 2429 1 1217 9113
M  V30 2430 1 1218 1219
M  V30 2431 1 1218 5667
M  V30 2432 1 1219 1220
M  V30 2433 1 1219 1222
M  V30 2434 1 1219 5668
M  V30 2435 2 1220 1221
M  V30 2436 1 1220 1226
M  V30 2437 1 1222 1223
M  V30 2438 1 1222 5669
M  V30 2439 1 1222 5670
M  V30 2440 1 1223 1224
M  V30 2441 1 1223 1225
M  V30 2442 1 1223 5671
M  V30 2443 1 1224 5672
M  V30 2444 1 1224 5673
M  V30 2445 1 1224 5674
M  V30 2446 1 1225 5675
M  V30 2447 1 1225 5676
M  V30 2448 1 1225 5677
M  V30 2449 1 1226 1227
M  V30 2450 1 1226 5678
M  V30 2451 1 1227 1228
M  V30 2452 1 1227 1230
M  V30 2453 1 1227 5679
M  V30 2454 2 1228 1229
M  V30 2455 1 1228 1232
M  V30 2456 1 1230 1231
M  V30 2457 1 1230 5680
M  V30 2458 1 1230 5681
M  V30 2459 1 1231 5682
M  V30 2460 1 1232 1233
M  V30 2461 1 1232 5683
M  V30 2462 1 1233 1234
M  V30 2463 1 1233 1236
M  V30 2464 1 1233 5684
M  V30 2465 2 1234 1235
M  V30 2466 1 1234 1246
M  V30 2467 1 1236 1237
M  V30 2468 1 1236 5685
M  V30 2469 1 1236 5686
M  V30 2470 2 1237 1238
M  V30 2471 1 1237 1239
M  V30 2472 1 1238 1242
M  V30 2473 1 1238 5687
M  V30 2474 2 1239 1240
M  V30 2475 1 1239 1241
M  V30 2476 1 1240 1242
M  V30 2477 1 1240 1243
M  V30 2478 2 1241 1244
M  V30 2479 1 1241 5688
M  V30 2480 1 1242 5689
M  V30 2481 2 1243 1245
M  V30 2482 1 1243 5690
M  V30 2483 1 1244 1245
M  V30 2484 1 1244 5691
M  V30 2485 1 1245 5692
M  V30 2486 1 1246 1247
M  V30 2487 1 1246 5693
M  V30 2488 1 1247 1248
M  V30 2489 1 1247 1250
M  V30 2490 1 1247 5694
M  V30 2491 2 1248 1249
M  V30 2492 1 1248 1255
M  V30 2493 1 1250 1251
M  V30 2494 1 1250 5695
M  V30 2495 1 1250 5696
M  V30 2496 1 1251 1252
M  V30 2497 1 1251 5697
M  V30 2498 1 1251 5698
M  V30 2499 2 1252 1253
M  V30 2500 1 1252 1254
M  V30 2501 1 1255 1256
M  V30 2502 1 1255 5699
M  V30 2503 1 1256 1257
M  V30 2504 1 1256 1259
M  V30 2505 1 1256 5700
M  V30 2506 2 1257 1258
M  V30 2507 1 1257 1262
M  V30 2508 1 1259 1260
M  V30 2509 1 1259 1261
M  V30 2510 1 1259 5701
M  V30 2511 1 1260 5702
M  V30 2512 1 1260 5703
M  V30 2513 1 1260 5704
M  V30 2514 1 1261 5705
M  V30 2515 1 1261 5706
M  V30 2516 1 1261 5707
M  V30 2517 1 1262 1263
M  V30 2518 1 1262 5708
M  V30 2519 1 1263 1264
M  V30 2520 1 1263 5709
M  V30 2521 1 1263 5710
M  V30 2522 2 1264 1265
M  V30 2523 1 1264 1266
M  V30 2524 1 1266 1267
M  V30 2525 1 1266 5711
M  V30 2526 1 1267 1268
M  V30 2527 1 1267 1270
M  V30 2528 1 1267 5712
M  V30 2529 2 1268 1269
M  V30 2530 1 1268 1275
M  V30 2531 1 1270 1271
M  V30 2532 1 1270 5713
M  V30 2533 1 1270 5714
M  V30 2534 1 1271 1272
M  V30 2535 1 1271 5715
M  V30 2536 1 1271 5716
M  V30 2537 1 1272 1273
M  V30 2538 1 1272 5717
M  V30 2539 1 1272 5718
M  V30 2540 1 1273 1274
M  V30 2541 1 1273 5719
M  V30 2542 1 1273 5720
M  V30 2543 1 1274 5721
M  V30 2544 1 1274 5722
M  V30 2545 1 1274 5723
M  V30 2546 1 1275 1276
M  V30 2547 1 1275 1281
M  V30 2548 1 1276 1277
M  V30 2549 1 1276 1279
M  V30 2550 1 1276 5724
M  V30 2551 2 1277 1278
M  V30 2552 1 1277 1282
M  V30 2553 1 1279 1280
M  V30 2554 1 1279 5725
M  V30 2555 1 1279 5726
M  V30 2556 1 1280 1281
M  V30 2557 1 1280 5727
M  V30 2558 1 1280 5728
M  V30 2559 1 1281 5729
M  V30 2560 1 1281 5730
M  V30 2561 1 1282 1283
M  V30 2562 1 1282 5731
M  V30 2563 1 1283 1284
M  V30 2564 1 1283 1286
M  V30 2565 1 1283 5732
M  V30 2566 2 1284 1285
M  V30 2567 1 1284 1293
M  V30 2568 1 1286 1287
M  V30 2569 1 1286 5733
M  V30 2570 1 1286 5734
M  V30 2571 1 1287 1288
M  V30 2572 1 1287 5735
M  V30 2573 1 1287 5736
M  V30 2574 1 1288 1289
M  V30 2575 1 1288 5737
M  V30 2576 1 1288 5738
M  V30 2577 1 1289 1290
M  V30 2578 1 1289 5739
M  V30 2579 1 1290 1291
M  V30 2580 2 1290 1292
M  V30 2581 1 1291 5740
M  V30 2582 1 1291 5741
M  V30 2583 1 1292 5742
M  V30 2584 1 1292 5743
M  V30 2585 1 1293 1294
M  V30 2586 1 1293 1299
M  V30 2587 1 1294 1295
M  V30 2588 1 1294 1297
M  V30 2589 1 1294 5744
M  V30 2590 2 1295 1296
M  V30 2591 1 1295 1300
M  V30 2592 1 1297 1298
M  V30 2593 1 1297 5745
M  V30 2594 1 1297 5746
M  V30 2595 1 1298 1299
M  V30 2596 1 1298 5747
M  V30 2597 1 1298 5748
M  V30 2598 1 1299 5749
M  V30 2599 1 1299 5750
M  V30 2600 1 1300 1301
M  V30 2601 1 1300 1306
M  V30 2602 1 1301 1302
M  V30 2603 1 1301 1304
M  V30 2604 1 1301 5751
M  V30 2605 2 1302 1303
M  V30 2606 1 1302 1307
M  V30 2607 1 1304 1305
M  V30 2608 1 1304 5752
M  V30 2609 1 1304 5753
M  V30 2610 1 1305 1306
M  V30 2611 1 1305 5754
M  V30 2612 1 1305 5755
M  V30 2613 1 1306 5756
M  V30 2614 1 1306 5757
M  V30 2615 1 1307 1308
M  V30 2616 1 1307 5758
M  V30 2617 1 1308 1309
M  V30 2618 1 1308 1311
M  V30 2619 1 1308 5759
M  V30 2620 2 1309 1310
M  V30 2621 1 1309 1315
M  V30 2622 1 1311 1312
M  V30 2623 1 1311 5760
M  V30 2624 1 1311 5761
M  V30 2625 1 1312 1313
M  V30 2626 1 1312 1314
M  V30 2627 1 1312 5762
M  V30 2628 1 1313 5763
M  V30 2629 1 1313 5764
M  V30 2630 1 1313 5765
M  V30 2631 1 1314 5766
M  V30 2632 1 1314 5767
M  V30 2633 1 1314 5768
M  V30 2634 1 1315 1316
M  V30 2635 1 1315 5769
M  V30 2636 1 1316 1317
M  V30 2637 1 1316 1319
M  V30 2638 1 1316 5770
M  V30 2639 2 1317 1318
M  V30 2640 1 1317 1323
M  V30 2641 1 1319 1320
M  V30 2642 1 1319 5771
M  V30 2643 1 1319 5772
M  V30 2644 1 1320 1321
M  V30 2645 2 1320 1322
M  V30 2646 1 1321 5773
M  V30 2647 1 1321 5774
M  V30 2648 1 1323 1324
M  V30 2649 1 1323 5775
M  V30 2650 1 1324 1325
M  V30 2651 1 1324 5776
M  V30 2652 1 1324 8976
M  V30 2653 2 1325 1326
M  V30 2654 1 1325 1327
M  V30 2655 1 1327 1328
M  V30 2656 1 1327 5777
M  V30 2657 1 1328 1329
M  V30 2658 1 1328 1331
M  V30 2659 1 1328 5778
M  V30 2660 2 1329 1330
M  V30 2661 1 1329 1335
M  V30 2662 1 1331 1332
M  V30 2663 1 1331 5779
M  V30 2664 1 1331 5780
M  V30 2665 1 1332 1333
M  V30 2666 2 1332 1334
M  V30 2667 1 1333 5781
M  V30 2668 1 1333 5782
M  V30 2669 1 1335 1336
M  V30 2670 1 1335 5783
M  V30 2671 1 1336 1337
M  V30 2672 1 1336 1339
M  V30 2673 1 1336 5784
M  V30 2674 2 1337 1338
M  V30 2675 1 1337 1347
M  V30 2676 1 1339 1340
M  V30 2677 1 1339 5785
M  V30 2678 1 1339 5786
M  V30 2679 2 1340 1341
M  V30 2680 1 1340 1342
M  V30 2681 1 1341 1343
M  V30 2682 1 1341 5787
M  V30 2683 2 1342 1344
M  V30 2684 1 1342 5788
M  V30 2685 2 1343 1345
M  V30 2686 1 1343 5789
M  V30 2687 1 1344 1345
M  V30 2688 1 1344 5790
M  V30 2689 1 1345 1346
M  V30 2690 1 1346 5791
M  V30 2691 1 1347 1348
M  V30 2692 1 1347 5792
M  V30 2693 1 1348 1349
M  V30 2694 1 1348 1351
M  V30 2695 1 1348 5793
M  V30 2696 2 1349 1350
M  V30 2697 1 1349 1354
M  V30 2698 1 1351 1352
M  V30 2699 1 1351 1353
M  V30 2700 1 1351 5794
M  V30 2701 1 1352 5795
M  V30 2702 1 1352 5796
M  V30 2703 1 1352 5797
M  V30 2704 1 1353 5798
M  V30 2705 1 1353 5799
M  V30 2706 1 1353 5800
M  V30 2707 1 1354 1355
M  V30 2708 1 1354 5801
M  V30 2709 1 1355 1356
M  V30 2710 1 1355 1358
M  V30 2711 1 1355 5802
M  V30 2712 2 1356 1357
M  V30 2713 1 1356 1365
M  V30 2714 1 1358 1359
M  V30 2715 1 1358 5803
M  V30 2716 1 1358 5804
M  V30 2717 2 1359 1360
M  V30 2718 1 1359 1361
M  V30 2719 1 1360 1362
M  V30 2720 1 1360 5805
M  V30 2721 2 1361 1363
M  V30 2722 1 1361 5806
M  V30 2723 2 1362 1364
M  V30 2724 1 1362 5807
M  V30 2725 1 1363 1364
M  V30 2726 1 1363 5808
M  V30 2727 1 1364 5809
M  V30 2728 1 1365 1366
M  V30 2729 1 1365 5810
M  V30 2730 1 1366 1367
M  V30 2731 1 1366 1369
M  V30 2732 1 1366 5811
M  V30 2733 2 1367 1368
M  V30 2734 1 1367 1372
M  V30 2735 1 1369 1370
M  V30 2736 1 1369 1371
M  V30 2737 1 1369 5812
M  V30 2738 1 1370 5813
M  V30 2739 1 1370 5814
M  V30 2740 1 1370 5815
M  V30 2741 1 1371 5816
M  V30 2742 1 1372 1373
M  V30 2743 1 1372 5817
M  V30 2744 1 1373 1374
M  V30 2745 1 1373 5818
M  V30 2746 1 1373 5819
M  V30 2747 2 1374 1375
M  V30 2748 1 1374 1376
M  V30 2749 1 1376 1377
M  V30 2750 1 1376 5820
M  V30 2751 1 1377 1378
M  V30 2752 1 1377 1380
M  V30 2753 1 1377 5821
M  V30 2754 2 1378 1379
M  V30 2755 1 1378 1388
M  V30 2756 1 1380 1381
M  V30 2757 1 1380 5822
M  V30 2758 1 1380 5823
M  V30 2759 2 1381 1382
M  V30 2760 1 1381 1383
M  V30 2761 1 1382 1384
M  V30 2762 1 1382 5824
M  V30 2763 2 1383 1385
M  V30 2764 1 1383 5825
M  V30 2765 2 1384 1386
M  V30 2766 1 1384 5826
M  V30 2767 1 1385 1386
M  V30 2768 1 1385 5827
M  V30 2769 1 1386 1387
M  V30 2770 1 1387 5828
M  V30 2771 1 1388 1389
M  V30 2772 1 1388 5829
M  V30 2773 1 1389 1390
M  V30 2774 1 1389 5830
M  V30 2775 1 1389 8994
M  V30 2776 2 1390 1391
M  V30 2777 1 1390 1392
M  V30 2778 1 1392 1393
M  V30 2779 1 1392 5831
M  V30 2780 1 1393 1394
M  V30 2781 1 1393 1396
M  V30 2782 1 1393 5832
M  V30 2783 2 1394 1395
M  V30 2784 1 1394 1399
M  V30 2785 1 1396 1397
M  V30 2786 1 1396 1398
M  V30 2787 1 1396 5833
M  V30 2788 1 1397 5834
M  V30 2789 1 1397 5835
M  V30 2790 1 1397 5836
M  V30 2791 1 1398 5837
M  V30 2792 1 1398 5838
M  V30 2793 1 1398 5839
M  V30 2794 1 1399 1400
M  V30 2795 1 1399 5840
M  V30 2796 1 1400 1401
M  V30 2797 1 1400 1403
M  V30 2798 1 1400 5841
M  V30 2799 2 1401 1402
M  V30 2800 1 1401 1406
M  V30 2801 1 1403 1404
M  V30 2802 1 1403 1405
M  V30 2803 1 1403 5842
M  V30 2804 1 1404 5843
M  V30 2805 1 1404 5844
M  V30 2806 1 1404 5845
M  V30 2807 1 1405 5846
M  V30 2808 1 1406 1407
M  V30 2809 1 1406 5847
M  V30 2810 1 1407 1408
M  V30 2811 1 1407 5848
M  V30 2812 1 1407 9012
M  V30 2813 2 1408 1409
M  V30 2814 1 1408 1410
M  V30 2815 1 1410 1411
M  V30 2816 1 1410 5849
M  V30 2817 1 1411 1412
M  V30 2818 1 1411 1414
M  V30 2819 1 1411 5850
M  V30 2820 2 1412 1413
M  V30 2821 1 1412 1418
M  V30 2822 1 1414 1415
M  V30 2823 1 1414 5851
M  V30 2824 1 1414 5852
M  V30 2825 1 1415 1416
M  V30 2826 2 1415 1417
M  V30 2827 1 1416 5853
M  V30 2828 1 1416 5854
M  V30 2829 1 1418 1419
M  V30 2830 1 1418 5855
M  V30 2831 1 1419 1420
M  V30 2832 1 1419 1422
M  V30 2833 1 1419 5856
M  V30 2834 2 1420 1421
M  V30 2835 1 1420 1424
M  V30 2836 1 1422 1423
M  V30 2837 1 1422 5857
M  V30 2838 1 1422 5858
M  V30 2839 1 1423 5859
M  V30 2840 1 1424 1425
M  V30 2841 1 1424 5860
M  V30 2842 1 1425 1426
M  V30 2843 1 1425 1428
M  V30 2844 1 1425 5861
M  V30 2845 2 1426 1427
M  V30 2846 1 1426 1433
M  V30 2847 1 1428 1429
M  V30 2848 1 1428 5862
M  V30 2849 1 1428 5863
M  V30 2850 1 1429 1430
M  V30 2851 1 1429 5864
M  V30 2852 1 1429 5865
M  V30 2853 1 1430 1431
M  V30 2854 1 1430 5866
M  V30 2855 1 1430 5867
M  V30 2856 1 1431 1432
M  V30 2857 1 1431 5868
M  V30 2858 1 1431 5869
M  V30 2859 1 1432 5870
M  V30 2860 1 1432 5871
M  V30 2861 1 1432 5872
M  V30 2862 1 1433 1434
M  V30 2863 1 1433 5873
M  V30 2864 1 1434 1435
M  V30 2865 1 1434 1437
M  V30 2866 1 1434 5874
M  V30 2867 2 1435 1436
M  V30 2868 1 1435 1440
M  V30 2869 1 1437 1438
M  V30 2870 1 1437 1439
M  V30 2871 1 1437 5875
M  V30 2872 1 1438 5876
M  V30 2873 1 1438 5877
M  V30 2874 1 1438 5878
M  V30 2875 1 1439 5879
M  V30 2876 1 1439 5880
M  V30 2877 1 1439 5881
M  V30 2878 1 1440 1441
M  V30 2879 1 1440 5882
M  V30 2880 1 1441 1442
M  V30 2881 1 1441 1444
M  V30 2882 1 1441 5883
M  V30 2883 2 1442 1443
M  V30 2884 1 1442 1449
M  V30 2885 1 1444 1445
M  V30 2886 1 1444 5884
M  V30 2887 1 1444 5885
M  V30 2888 1 1445 1446
M  V30 2889 1 1445 5886
M  V30 2890 1 1445 5887
M  V30 2891 1 1446 1447
M  V30 2892 2 1446 1448
M  V30 2893 1 1447 5888
M  V30 2894 1 1447 5889
M  V30 2895 1 1449 1450
M  V30 2896 1 1449 5890
M  V30 2897 1 1450 1451
M  V30 2898 1 1450 1453
M  V30 2899 1 1450 5891
M  V30 2900 2 1451 1452
M  V30 2901 1 1451 1457
M  V30 2902 1 1453 1454
M  V30 2903 1 1453 1455
M  V30 2904 1 1453 5892
M  V30 2905 1 1454 1456
M  V30 2906 1 1454 5893
M  V30 2907 1 1454 5894
M  V30 2908 1 1455 5895
M  V30 2909 1 1455 5896
M  V30 2910 1 1455 5897
M  V30 2911 1 1456 5898
M  V30 2912 1 1456 5899
M  V30 2913 1 1456 5900
M  V30 2914 1 1457 1458
M  V30 2915 1 1457 5901
M  V30 2916 1 1458 1459
M  V30 2917 1 1458 5902
M  V30 2918 1 1458 5903
M  V30 2919 2 1459 1460
M  V30 2920 1 1459 1461
M  V30 2921 1 1461 1462
M  V30 2922 1 1461 5904
M  V30 2923 1 1462 1463
M  V30 2924 1 1462 1465
M  V30 2925 1 1462 5905
M  V30 2926 2 1463 1464
M  V30 2927 1 1463 1470
M  V30 2928 1 1465 1466
M  V30 2929 1 1465 5906
M  V30 2930 1 1465 5907
M  V30 2931 1 1466 1467
M  V30 2932 1 1466 5908
M  V30 2933 1 1466 5909
M  V30 2934 2 1467 1468
M  V30 2935 1 1467 1469
M  V30 2936 1 1470 1471
M  V30 2937 1 1470 5910
M  V30 2938 1 1471 1472
M  V30 2939 1 1471 1474
M  V30 2940 1 1471 5911
M  V30 2941 2 1472 1473
M  V30 2942 1 1472 1482
M  V30 2943 1 1474 1475
M  V30 2944 1 1474 5912
M  V30 2945 1 1474 5913
M  V30 2946 2 1475 1476
M  V30 2947 1 1475 1477
M  V30 2948 1 1476 1478
M  V30 2949 1 1476 5914
M  V30 2950 2 1477 1479
M  V30 2951 1 1477 5915
M  V30 2952 2 1478 1480
M  V30 2953 1 1478 5916
M  V30 2954 1 1479 1480
M  V30 2955 1 1479 5917
M  V30 2956 1 1480 1481
M  V30 2957 1 1481 5918
M  V30 2958 1 1482 1483
M  V30 2959 1 1482 5919
M  V30 2960 1 1483 1484
M  V30 2961 1 1483 1486
M  V30 2962 1 1483 5920
M  V30 2963 2 1484 1485
M  V30 2964 1 1484 1489
M  V30 2965 1 1486 1487
M  V30 2966 1 1486 1488
M  V30 2967 1 1486 5921
M  V30 2968 1 1487 5922
M  V30 2969 1 1487 5923
M  V30 2970 1 1487 5924
M  V30 2971 1 1488 5925
M  V30 2972 1 1489 1490
M  V30 2973 1 1489 5926
M  V30 2974 1 1490 1491
M  V30 2975 1 1490 1493
M  V30 2976 1 1490 5927
M  V30 2977 2 1491 1492
M  V30 2978 1 1491 1500
M  V30 2979 1 1493 1494
M  V30 2980 1 1493 5928
M  V30 2981 1 1493 5929
M  V30 2982 2 1494 1495
M  V30 2983 1 1494 1496
M  V30 2984 1 1495 1497
M  V30 2985 1 1495 5930
M  V30 2986 2 1496 1498
M  V30 2987 1 1496 5931
M  V30 2988 2 1497 1499
M  V30 2989 1 1497 5932
M  V30 2990 1 1498 1499
M  V30 2991 1 1498 5933
M  V30 2992 1 1499 5934
M  V30 2993 1 1500 1501
M  V30 2994 1 1500 5935
M  V30 2995 1 1501 1502
M  V30 2996 1 1501 1504
M  V30 2997 1 1501 5936
M  V30 2998 2 1502 1503
M  V30 2999 1 1502 1509
M  V30 3000 1 1504 1505
M  V30 3001 1 1504 5937
M  V30 3002 1 1504 5938
M  V30 3003 1 1505 1506
M  V30 3004 1 1505 5939
M  V30 3005 1 1505 5940
M  V30 3006 2 1506 1507
M  V30 3007 1 1506 1508
M  V30 3008 1 1509 1510
M  V30 3009 1 1509 5941
M  V30 3010 1 1510 1511
M  V30 3011 1 1510 1513
M  V30 3012 1 1510 5942
M  V30 3013 2 1511 1512
M  V30 3014 1 1511 1518
M  V30 3015 1 1513 1514
M  V30 3016 1 1513 5943
M  V30 3017 1 1513 5944
M  V30 3018 1 1514 1515
M  V30 3019 1 1514 5945
M  V30 3020 1 1514 5946
M  V30 3021 1 1515 1516
M  V30 3022 1 1515 5947
M  V30 3023 1 1515 5948
M  V30 3024 1 1516 1517
M  V30 3025 1 1516 5949
M  V30 3026 1 1516 5950
M  V30 3027 1 1517 5951
M  V30 3028 1 1517 5952
M  V30 3029 1 1517 5953
M  V30 3030 1 1518 1519
M  V30 3031 1 1518 5954
M  V30 3032 1 1519 1520
M  V30 3033 1 1519 5955
M  V30 3034 1 1519 5956
M  V30 3035 2 1520 1521
M  V30 3036 1 1520 5957
M  V30 3037 1 1522 1523
M  V30 3038 1 1522 5958
M  V30 3039 1 1522 5959
M  V30 3040 1 1523 1524
M  V30 3041 1 1523 1526
M  V30 3042 1 1523 5960
M  V30 3043 2 1524 1525
M  V30 3044 1 1524 1527
M  V30 3045 1 1526 5961
M  V30 3046 1 1526 5962
M  V30 3047 1 1526 5963
M  V30 3048 1 1527 1528
M  V30 3049 1 1527 5964
M  V30 3050 1 1528 1529
M  V30 3051 1 1528 1531
M  V30 3052 1 1528 5965
M  V30 3053 2 1529 1530
M  V30 3054 1 1529 1534
M  V30 3055 1 1531 1532
M  V30 3056 1 1531 1533
M  V30 3057 1 1531 5966
M  V30 3058 1 1532 5967
M  V30 3059 1 1532 5968
M  V30 3060 1 1532 5969
M  V30 3061 1 1533 5970
M  V30 3062 1 1533 5971
M  V30 3063 1 1533 5972
M  V30 3064 1 1534 1535
M  V30 3065 1 1534 5973
M  V30 3066 1 1535 1536
M  V30 3067 1 1535 1538
M  V30 3068 1 1535 5974
M  V30 3069 2 1536 1537
M  V30 3070 1 1536 1541
M  V30 3071 1 1538 1539
M  V30 3072 1 1538 1540
M  V30 3073 1 1538 5975
M  V30 3074 1 1539 5976
M  V30 3075 1 1539 5977
M  V30 3076 1 1539 5978
M  V30 3077 1 1540 5979
M  V30 3078 1 1540 5980
M  V30 3079 1 1540 5981
M  V30 3080 1 1541 1542
M  V30 3081 1 1541 5982
M  V30 3082 1 1542 1543
M  V30 3083 1 1542 1545
M  V30 3084 1 1542 5983
M  V30 3085 2 1543 1544
M  V30 3086 1 1543 1553
M  V30 3087 1 1545 1546
M  V30 3088 1 1545 5984
M  V30 3089 1 1545 5985
M  V30 3090 2 1546 1547
M  V30 3091 1 1546 1548
M  V30 3092 1 1547 1549
M  V30 3093 1 1547 5986
M  V30 3094 2 1548 1550
M  V30 3095 1 1548 5987
M  V30 3096 2 1549 1551
M  V30 3097 1 1549 5988
M  V30 3098 1 1550 1551
M  V30 3099 1 1550 5989
M  V30 3100 1 1551 1552
M  V30 3101 1 1552 5990
M  V30 3102 1 1553 1554
M  V30 3103 1 1553 5991
M  V30 3104 1 1554 1555
M  V30 3105 1 1554 5992
M  V30 3106 1 1554 9028
M  V30 3107 2 1555 1556
M  V30 3108 1 1555 1557
M  V30 3109 1 1557 1558
M  V30 3110 1 1557 5993
M  V30 3111 1 1558 1559
M  V30 3112 1 1558 5994
M  V30 3113 1 1558 5995
M  V30 3114 2 1559 1560
M  V30 3115 1 1559 1561
M  V30 3116 1 1561 1562
M  V30 3117 1 1561 5996
M  V30 3118 1 1562 1563
M  V30 3119 1 1562 5997
M  V30 3120 1 1562 9046
M  V30 3121 2 1563 1564
M  V30 3122 1 1563 1565
M  V30 3123 1 1565 1566
M  V30 3124 1 1565 5998
M  V30 3125 1 1566 1567
M  V30 3126 1 1566 1569
M  V30 3127 1 1566 5999
M  V30 3128 2 1567 1568
M  V30 3129 1 1567 1572
M  V30 3130 1 1569 1570
M  V30 3131 1 1569 1571
M  V30 3132 1 1569 6000
M  V30 3133 1 1570 6001
M  V30 3134 1 1570 6002
M  V30 3135 1 1570 6003
M  V30 3136 1 1571 6004
M  V30 3137 1 1572 1573
M  V30 3138 1 1572 6005
M  V30 3139 1 1573 1574
M  V30 3140 1 1573 1576
M  V30 3141 1 1573 6006
M  V30 3142 2 1574 1575
M  V30 3143 1 1574 1579
M  V30 3144 1 1576 1577
M  V30 3145 1 1576 1578
M  V30 3146 1 1576 6007
M  V30 3147 1 1577 6008
M  V30 3148 1 1577 6009
M  V30 3149 1 1577 6010
M  V30 3150 1 1578 6011
M  V30 3151 1 1579 1580
M  V30 3152 1 1579 6012
M  V30 3153 1 1580 1581
M  V30 3154 1 1580 1583
M  V30 3155 1 1580 6013
M  V30 3156 2 1581 1582
M  V30 3157 1 1581 1591
M  V30 3158 1 1583 1584
M  V30 3159 1 1583 6014
M  V30 3160 1 1583 6015
M  V30 3161 2 1584 1585
M  V30 3162 1 1584 1586
M  V30 3163 1 1585 1587
M  V30 3164 1 1585 6016
M  V30 3165 2 1586 1588
M  V30 3166 1 1586 6017
M  V30 3167 2 1587 1589
M  V30 3168 1 1587 6018
M  V30 3169 1 1588 1589
M  V30 3170 1 1588 6019
M  V30 3171 1 1589 1590
M  V30 3172 1 1590 6020
M  V30 3173 1 1591 1592
M  V30 3174 1 1591 6021
M  V30 3175 1 1592 1593
M  V30 3176 1 1592 6022
M  V30 3177 1 1592 9054
M  V30 3178 2 1593 1594
M  V30 3179 1 1593 1595
M  V30 3180 1 1595 1596
M  V30 3181 1 1595 6023
M  V30 3182 1 1596 1597
M  V30 3183 1 1596 1599
M  V30 3184 1 1596 6024
M  V30 3185 2 1597 1598
M  V30 3186 1 1597 1603
M  V30 3187 1 1599 1600
M  V30 3188 1 1599 6025
M  V30 3189 1 1599 6026
M  V30 3190 1 1600 1601
M  V30 3191 1 1600 1602
M  V30 3192 1 1600 6027
M  V30 3193 1 1601 6028
M  V30 3194 1 1601 6029
M  V30 3195 1 1601 6030
M  V30 3196 1 1602 6031
M  V30 3197 1 1602 6032
M  V30 3198 1 1602 6033
M  V30 3199 1 1603 1604
M  V30 3200 1 1603 6034
M  V30 3201 1 1604 1605
M  V30 3202 1 1604 1607
M  V30 3203 1 1604 6035
M  V30 3204 2 1605 1606
M  V30 3205 1 1605 1611
M  V30 3206 1 1607 1608
M  V30 3207 1 1607 6036
M  V30 3208 1 1607 6037
M  V30 3209 1 1608 1609
M  V30 3210 2 1608 1610
M  V30 3211 1 1609 6038
M  V30 3212 1 1609 6039
M  V30 3213 1 1611 1612
M  V30 3214 1 1611 6040
M  V30 3215 1 1612 1613
M  V30 3216 1 1612 1615
M  V30 3217 1 1612 6041
M  V30 3218 2 1613 1614
M  V30 3219 1 1613 1618
M  V30 3220 1 1615 1616
M  V30 3221 1 1615 1617
M  V30 3222 1 1615 6042
M  V30 3223 1 1616 6043
M  V30 3224 1 1616 6044
M  V30 3225 1 1616 6045
M  V30 3226 1 1617 6046
M  V30 3227 1 1617 6047
M  V30 3228 1 1617 6048
M  V30 3229 1 1618 1619
M  V30 3230 1 1618 6049
M  V30 3231 1 1619 1620
M  V30 3232 1 1619 6050
M  V30 3233 1 1619 6051
M  V30 3234 2 1620 1621
M  V30 3235 1 1620 1622
M  V30 3236 1 1622 1623
M  V30 3237 1 1622 6052
M  V30 3238 1 1623 1624
M  V30 3239 1 1623 1626
M  V30 3240 1 1623 6053
M  V30 3241 2 1624 1625
M  V30 3242 1 1624 1630
M  V30 3243 1 1626 1627
M  V30 3244 1 1626 6054
M  V30 3245 1 1626 6055
M  V30 3246 2 1627 1628
M  V30 3247 1 1627 1629
M  V30 3248 1 1630 1631
M  V30 3249 1 1630 6056
M  V30 3250 1 1631 1632
M  V30 3251 1 1631 1634
M  V30 3252 1 1631 6057
M  V30 3253 2 1632 1633
M  V30 3254 1 1632 1642
M  V30 3255 1 1634 1635
M  V30 3256 1 1634 6058
M  V30 3257 1 1634 6059
M  V30 3258 2 1635 1636
M  V30 3259 1 1635 1637
M  V30 3260 1 1636 1638
M  V30 3261 1 1636 6060
M  V30 3262 2 1637 1639
M  V30 3263 1 1637 6061
M  V30 3264 2 1638 1640
M  V30 3265 1 1638 6062
M  V30 3266 1 1639 1640
M  V30 3267 1 1639 6063
M  V30 3268 1 1640 1641
M  V30 3269 1 1641 6064
M  V30 3270 1 1642 1643
M  V30 3271 1 1642 6065
M  V30 3272 1 1643 1644
M  V30 3273 1 1643 1646
M  V30 3274 1 1643 6066
M  V30 3275 2 1644 1645
M  V30 3276 1 1644 1653
M  V30 3277 1 1646 1647
M  V30 3278 1 1646 6067
M  V30 3279 1 1646 6068
M  V30 3280 2 1647 1648
M  V30 3281 1 1647 1649
M  V30 3282 1 1648 1650
M  V30 3283 1 1648 6069
M  V30 3284 2 1649 1651
M  V30 3285 1 1649 6070
M  V30 3286 2 1650 1652
M  V30 3287 1 1650 6071
M  V30 3288 1 1651 1652
M  V30 3289 1 1651 6072
M  V30 3290 1 1652 6073
M  V30 3291 1 1653 1654
M  V30 3292 1 1653 6074
M  V30 3293 1 1654 1655
M  V30 3294 1 1654 1657
M  V30 3295 1 1654 6075
M  V30 3296 2 1655 1656
M  V30 3297 1 1655 1660
M  V30 3298 1 1657 1658
M  V30 3299 1 1657 1659
M  V30 3300 1 1657 6076
M  V30 3301 1 1658 6077
M  V30 3302 1 1658 6078
M  V30 3303 1 1658 6079
M  V30 3304 1 1659 6080
M  V30 3305 1 1659 6081
M  V30 3306 1 1659 6082
M  V30 3307 1 1660 1661
M  V30 3308 1 1660 6083
M  V30 3309 1 1661 1662
M  V30 3310 1 1661 1664
M  V30 3311 1 1661 6084
M  V30 3312 2 1662 1663
M  V30 3313 1 1662 1668
M  V30 3314 1 1664 1665
M  V30 3315 1 1664 6085
M  V30 3316 1 1664 6086
M  V30 3317 1 1665 1666
M  V30 3318 1 1665 1667
M  V30 3319 1 1665 6087
M  V30 3320 1 1666 6088
M  V30 3321 1 1666 6089
M  V30 3322 1 1666 6090
M  V30 3323 1 1667 6091
M  V30 3324 1 1667 6092
M  V30 3325 1 1667 6093
M  V30 3326 1 1668 1669
M  V30 3327 1 1668 6094
M  V30 3328 1 1669 1670
M  V30 3329 1 1669 1672
M  V30 3330 1 1669 6095
M  V30 3331 2 1670 1671
M  V30 3332 1 1670 1675
M  V30 3333 1 1672 1673
M  V30 3334 1 1672 1674
M  V30 3335 1 1672 6096
M  V30 3336 1 1673 6097
M  V30 3337 1 1673 6098
M  V30 3338 1 1673 6099
M  V30 3339 1 1674 6100
M  V30 3340 1 1675 1676
M  V30 3341 1 1675 6101
M  V30 3342 1 1676 1677
M  V30 3343 1 1676 1679
M  V30 3344 1 1676 6102
M  V30 3345 2 1677 1678
M  V30 3346 1 1677 1681
M  V30 3347 1 1679 1680
M  V30 3348 1 1679 6103
M  V30 3349 1 1679 6104
M  V30 3350 1 1680 6105
M  V30 3351 1 1681 1682
M  V30 3352 1 1681 6106
M  V30 3353 1 1682 1683
M  V30 3354 1 1682 1685
M  V30 3355 1 1682 6107
M  V30 3356 2 1683 1684
M  V30 3357 1 1683 1691
M  V30 3358 1 1685 1686
M  V30 3359 1 1685 6108
M  V30 3360 1 1685 6109
M  V30 3361 2 1686 1687
M  V30 3362 1 1686 1688
M  V30 3363 1 1687 1690
M  V30 3364 1 1687 6110
M  V30 3365 1 1688 1689
M  V30 3366 1 1688 6111
M  V30 3367 2 1689 1690
M  V30 3368 1 1689 6112
M  V30 3369 1 1691 1692
M  V30 3370 1 1691 6113
M  V30 3371 1 1692 1693
M  V30 3372 1 1692 1695
M  V30 3373 1 1692 6114
M  V30 3374 2 1693 1694
M  V30 3375 1 1693 1698
M  V30 3376 1 1695 1696
M  V30 3377 1 1695 1697
M  V30 3378 1 1695 6115
M  V30 3379 1 1696 6116
M  V30 3380 1 1696 6117
M  V30 3381 1 1696 6118
M  V30 3382 1 1697 6119
M  V30 3383 1 1698 1699
M  V30 3384 1 1698 6120
M  V30 3385 1 1699 1700
M  V30 3386 1 1699 1702
M  V30 3387 1 1699 6121
M  V30 3388 2 1700 1701
M  V30 3389 1 1700 1705
M  V30 3390 1 1702 1703
M  V30 3391 1 1702 1704
M  V30 3392 1 1702 6122
M  V30 3393 1 1703 6123
M  V30 3394 1 1703 6124
M  V30 3395 1 1703 6125
M  V30 3396 1 1704 6126
M  V30 3397 1 1704 6127
M  V30 3398 1 1704 6128
M  V30 3399 1 1705 1706
M  V30 3400 1 1705 6129
M  V30 3401 1 1706 1707
M  V30 3402 1 1706 1709
M  V30 3403 1 1706 6130
M  V30 3404 2 1707 1708
M  V30 3405 1 1707 1713
M  V30 3406 1 1709 1710
M  V30 3407 1 1709 6131
M  V30 3408 1 1709 6132
M  V30 3409 1 1710 1711
M  V30 3410 1 1710 6133
M  V30 3411 1 1710 6134
M  V30 3412 1 1711 1712
M  V30 3413 1 1712 6135
M  V30 3414 1 1712 6136
M  V30 3415 1 1712 6137
M  V30 3416 1 1713 1714
M  V30 3417 1 1713 1719
M  V30 3418 1 1714 1715
M  V30 3419 1 1714 1717
M  V30 3420 1 1714 6138
M  V30 3421 2 1715 1716
M  V30 3422 1 1715 1720
M  V30 3423 1 1717 1718
M  V30 3424 1 1717 6139
M  V30 3425 1 1717 6140
M  V30 3426 1 1718 1719
M  V30 3427 1 1718 6141
M  V30 3428 1 1718 6142
M  V30 3429 1 1719 6143
M  V30 3430 1 1719 6144
M  V30 3431 1 1720 1721
M  V30 3432 1 1720 6145
M  V30 3433 1 1721 1722
M  V30 3434 1 1721 1724
M  V30 3435 1 1721 6146
M  V30 3436 2 1722 1723
M  V30 3437 1 1722 1728
M  V30 3438 1 1724 1725
M  V30 3439 1 1724 6147
M  V30 3440 1 1724 6148
M  V30 3441 1 1725 1726
M  V30 3442 1 1725 1727
M  V30 3443 1 1725 6149
M  V30 3444 1 1726 6150
M  V30 3445 1 1726 6151
M  V30 3446 1 1726 6152
M  V30 3447 1 1727 6153
M  V30 3448 1 1727 6154
M  V30 3449 1 1727 6155
M  V30 3450 1 1728 1729
M  V30 3451 1 1728 6156
M  V30 3452 1 1729 1730
M  V30 3453 1 1729 1732
M  V30 3454 1 1729 6157
M  V30 3455 2 1730 1731
M  V30 3456 1 1730 1734
M  V30 3457 1 1732 1733
M  V30 3458 1 1732 6158
M  V30 3459 1 1732 6159
M  V30 3460 1 1733 6160
M  V30 3461 1 1734 1735
M  V30 3462 1 1734 6161
M  V30 3463 1 1735 1736
M  V30 3464 1 1735 1738
M  V30 3465 1 1735 6162
M  V30 3466 2 1736 1737
M  V30 3467 1 1736 1739
M  V30 3468 1 1738 6163
M  V30 3469 1 1738 6164
M  V30 3470 1 1738 6165
M  V30 3471 1 1739 1740
M  V30 3472 1 1739 1745
M  V30 3473 1 1740 1741
M  V30 3474 1 1740 1743
M  V30 3475 1 1740 6166
M  V30 3476 2 1741 1742
M  V30 3477 1 1741 1746
M  V30 3478 1 1743 1744
M  V30 3479 1 1743 6167
M  V30 3480 1 1743 6168
M  V30 3481 1 1744 1745
M  V30 3482 1 1744 6169
M  V30 3483 1 1744 6170
M  V30 3484 1 1745 6171
M  V30 3485 1 1745 6172
M  V30 3486 1 1746 1747
M  V30 3487 1 1746 6173
M  V30 3488 1 1747 1748
M  V30 3489 1 1747 1750
M  V30 3490 1 1747 6174
M  V30 3491 2 1748 1749
M  V30 3492 1 1748 1753
M  V30 3493 1 1750 1751
M  V30 3494 1 1750 1752
M  V30 3495 1 1750 6175
M  V30 3496 1 1751 6176
M  V30 3497 1 1751 6177
M  V30 3498 1 1751 6178
M  V30 3499 1 1752 6179
M  V30 3500 1 1753 1754
M  V30 3501 1 1753 6180
M  V30 3502 1 1754 1755
M  V30 3503 1 1754 1757
M  V30 3504 1 1754 6181
M  V30 3505 2 1755 1756
M  V30 3506 1 1755 1761
M  V30 3507 1 1757 1758
M  V30 3508 1 1757 6182
M  V30 3509 1 1757 6183
M  V30 3510 1 1758 1759
M  V30 3511 1 1758 1760
M  V30 3512 1 1758 6184
M  V30 3513 1 1759 6185
M  V30 3514 1 1759 6186
M  V30 3515 1 1759 6187
M  V30 3516 1 1760 6188
M  V30 3517 1 1760 6189
M  V30 3518 1 1760 6190
M  V30 3519 1 1761 1762
M  V30 3520 1 1761 6191
M  V30 3521 1 1762 1763
M  V30 3522 1 1762 1765
M  V30 3523 1 1762 6192
M  V30 3524 2 1763 1764
M  V30 3525 1 1763 1768
M  V30 3526 1 1765 1766
M  V30 3527 1 1765 1767
M  V30 3528 1 1765 6193
M  V30 3529 1 1766 6194
M  V30 3530 1 1766 6195
M  V30 3531 1 1766 6196
M  V30 3532 1 1767 6197
M  V30 3533 1 1767 6198
M  V30 3534 1 1767 6199
M  V30 3535 1 1768 1769
M  V30 3536 1 1768 1774
M  V30 3537 1 1769 1770
M  V30 3538 1 1769 1772
M  V30 3539 1 1769 6200
M  V30 3540 2 1770 1771
M  V30 3541 1 1770 1775
M  V30 3542 1 1772 1773
M  V30 3543 1 1772 6201
M  V30 3544 1 1772 6202
M  V30 3545 1 1773 1774
M  V30 3546 1 1773 6203
M  V30 3547 1 1773 6204
M  V30 3548 1 1774 6205
M  V30 3549 1 1774 6206
M  V30 3550 1 1775 1776
M  V30 3551 1 1775 6207
M  V30 3552 1 1776 1777
M  V30 3553 1 1776 1779
M  V30 3554 1 1776 6208
M  V30 3555 2 1777 1778
M  V30 3556 1 1777 1784
M  V30 3557 1 1779 1780
M  V30 3558 1 1779 6209
M  V30 3559 1 1779 6210
M  V30 3560 1 1780 1781
M  V30 3561 1 1780 6211
M  V30 3562 1 1780 6212
M  V30 3563 1 1781 1782
M  V30 3564 2 1781 1783
M  V30 3565 1 1782 6213
M  V30 3566 1 1782 6214
M  V30 3567 1 1784 1785
M  V30 3568 1 1784 6215
M  V30 3569 1 1785 1786
M  V30 3570 1 1785 1788
M  V30 3571 1 1785 6216
M  V30 3572 2 1786 1787
M  V30 3573 1 1786 1793
M  V30 3574 1 1788 1789
M  V30 3575 1 1788 6217
M  V30 3576 1 1788 6218
M  V30 3577 1 1789 1790
M  V30 3578 1 1789 6219
M  V30 3579 1 1789 6220
M  V30 3580 2 1790 1791
M  V30 3581 1 1790 1792
M  V30 3582 1 1793 1794
M  V30 3583 1 1793 6221
M  V30 3584 1 1794 1795
M  V30 3585 1 1794 1797
M  V30 3586 1 1794 6222
M  V30 3587 2 1795 1796
M  V30 3588 1 1795 1803
M  V30 3589 1 1797 1798
M  V30 3590 1 1797 6223
M  V30 3591 1 1797 6224
M  V30 3592 2 1798 1799
M  V30 3593 1 1798 1800
M  V30 3594 1 1799 1802
M  V30 3595 1 1799 6225
M  V30 3596 2 1800 1801
M  V30 3597 1 1801 1802
M  V30 3598 1 1801 6226
M  V30 3599 1 1802 9114
M  V30 3600 1 1803 1804
M  V30 3601 1 1803 6227
M  V30 3602 1 1804 1805
M  V30 3603 1 1804 1807
M  V30 3604 1 1804 6228
M  V30 3605 2 1805 1806
M  V30 3606 1 1805 1815
M  V30 3607 1 1807 1808
M  V30 3608 1 1807 6229
M  V30 3609 1 1807 6230
M  V30 3610 2 1808 1809
M  V30 3611 1 1808 1810
M  V30 3612 1 1809 1811
M  V30 3613 1 1809 6231
M  V30 3614 2 1810 1812
M  V30 3615 1 1810 6232
M  V30 3616 2 1811 1813
M  V30 3617 1 1811 6233
M  V30 3618 1 1812 1813
M  V30 3619 1 1812 6234
M  V30 3620 1 1813 1814
M  V30 3621 1 1814 6235
M  V30 3622 1 1815 1816
M  V30 3623 1 1815 6236
M  V30 3624 1 1816 1817
M  V30 3625 1 1816 1819
M  V30 3626 1 1816 6237
M  V30 3627 2 1817 1818
M  V30 3628 1 1817 1822
M  V30 3629 1 1819 1820
M  V30 3630 1 1819 1821
M  V30 3631 1 1819 6238
M  V30 3632 1 1820 6239
M  V30 3633 1 1820 6240
M  V30 3634 1 1820 6241
M  V30 3635 1 1821 6242
M  V30 3636 1 1821 6243
M  V30 3637 1 1821 6244
M  V30 3638 1 1822 1823
M  V30 3639 1 1822 6245
M  V30 3640 1 1823 1824
M  V30 3641 1 1823 1826
M  V30 3642 1 1823 6246
M  V30 3643 2 1824 1825
M  V30 3644 1 1824 1833
M  V30 3645 1 1826 1827
M  V30 3646 1 1826 6247
M  V30 3647 1 1826 6248
M  V30 3648 1 1827 1828
M  V30 3649 1 1827 6249
M  V30 3650 1 1827 6250
M  V30 3651 1 1828 1829
M  V30 3652 1 1828 6251
M  V30 3653 1 1828 6252
M  V30 3654 1 1829 1830
M  V30 3655 1 1829 6253
M  V30 3656 1 1830 1831
M  V30 3657 2 1830 1832
M  V30 3658 1 1831 6254
M  V30 3659 1 1831 6255
M  V30 3660 1 1832 6256
M  V30 3661 1 1832 6257
M  V30 3662 1 1833 1834
M  V30 3663 1 1833 6258
M  V30 3664 1 1834 1835
M  V30 3665 1 1834 1837
M  V30 3666 1 1834 6259
M  V30 3667 2 1835 1836
M  V30 3668 1 1835 1841
M  V30 3669 1 1837 1838
M  V30 3670 1 1837 1839
M  V30 3671 1 1837 6260
M  V30 3672 1 1838 1840
M  V30 3673 1 1838 6261
M  V30 3674 1 1838 6262
M  V30 3675 1 1839 6263
M  V30 3676 1 1839 6264
M  V30 3677 1 1839 6265
M  V30 3678 1 1840 6266
M  V30 3679 1 1840 6267
M  V30 3680 1 1840 6268
M  V30 3681 1 1841 1842
M  V30 3682 1 1841 6269
M  V30 3683 1 1842 1843
M  V30 3684 1 1842 1845
M  V30 3685 1 1842 6270
M  V30 3686 2 1843 1844
M  V30 3687 1 1843 1848
M  V30 3688 1 1845 1846
M  V30 3689 1 1845 1847
M  V30 3690 1 1845 6271
M  V30 3691 1 1846 6272
M  V30 3692 1 1846 6273
M  V30 3693 1 1846 6274
M  V30 3694 1 1847 6275
M  V30 3695 1 1848 1849
M  V30 3696 1 1848 6276
M  V30 3697 1 1849 1850
M  V30 3698 1 1849 6277
M  V30 3699 1 1849 6278
M  V30 3700 2 1850 1851
M  V30 3701 1 1850 1852
M  V30 3702 1 1852 1853
M  V30 3703 1 1852 6279
M  V30 3704 1 1853 1854
M  V30 3705 1 1853 1856
M  V30 3706 1 1853 6280
M  V30 3707 2 1854 1855
M  V30 3708 1 1854 1860
M  V30 3709 1 1856 1857
M  V30 3710 1 1856 6281
M  V30 3711 1 1856 6282
M  V30 3712 1 1857 1858
M  V30 3713 1 1857 1859
M  V30 3714 1 1857 6283
M  V30 3715 1 1858 6284
M  V30 3716 1 1858 6285
M  V30 3717 1 1858 6286
M  V30 3718 1 1859 6287
M  V30 3719 1 1859 6288
M  V30 3720 1 1859 6289
M  V30 3721 1 1860 1861
M  V30 3722 1 1860 6290
M  V30 3723 1 1861 1862
M  V30 3724 1 1861 1864
M  V30 3725 1 1861 6291
M  V30 3726 2 1862 1863
M  V30 3727 1 1862 1872
M  V30 3728 1 1864 1865
M  V30 3729 1 1864 6292
M  V30 3730 1 1864 6293
M  V30 3731 2 1865 1866
M  V30 3732 1 1865 1867
M  V30 3733 1 1866 1868
M  V30 3734 1 1866 6294
M  V30 3735 2 1867 1869
M  V30 3736 1 1867 6295
M  V30 3737 2 1868 1870
M  V30 3738 1 1868 6296
M  V30 3739 1 1869 1870
M  V30 3740 1 1869 6297
M  V30 3741 1 1870 1871
M  V30 3742 1 1871 6298
M  V30 3743 1 1872 1873
M  V30 3744 1 1872 1878
M  V30 3745 1 1873 1874
M  V30 3746 1 1873 1876
M  V30 3747 1 1873 6299
M  V30 3748 2 1874 1875
M  V30 3749 1 1874 1879
M  V30 3750 1 1876 1877
M  V30 3751 1 1876 6300
M  V30 3752 1 1876 6301
M  V30 3753 1 1877 1878
M  V30 3754 1 1877 6302
M  V30 3755 1 1877 6303
M  V30 3756 1 1878 6304
M  V30 3757 1 1878 6305
M  V30 3758 1 1879 1880
M  V30 3759 1 1879 6306
M  V30 3760 1 1880 1881
M  V30 3761 1 1880 1883
M  V30 3762 1 1880 6307
M  V30 3763 2 1881 1882
M  V30 3764 1 1881 1886
M  V30 3765 1 1883 1884
M  V30 3766 1 1883 1885
M  V30 3767 1 1883 6308
M  V30 3768 1 1884 6309
M  V30 3769 1 1884 6310
M  V30 3770 1 1884 6311
M  V30 3771 1 1885 6312
M  V30 3772 1 1886 1887
M  V30 3773 1 1886 6313
M  V30 3774 1 1887 1888
M  V30 3775 1 1887 1890
M  V30 3776 1 1887 6314
M  V30 3777 2 1888 1889
M  V30 3778 1 1888 1894
M  V30 3779 1 1890 1891
M  V30 3780 1 1890 6315
M  V30 3781 1 1890 6316
M  V30 3782 1 1891 1892
M  V30 3783 1 1891 1893
M  V30 3784 1 1891 6317
M  V30 3785 1 1892 6318
M  V30 3786 1 1892 6319
M  V30 3787 1 1892 6320
M  V30 3788 1 1893 6321
M  V30 3789 1 1893 6322
M  V30 3790 1 1893 6323
M  V30 3791 1 1894 1895
M  V30 3792 1 1894 6324
M  V30 3793 1 1895 1896
M  V30 3794 1 1895 1898
M  V30 3795 1 1895 6325
M  V30 3796 2 1896 1897
M  V30 3797 1 1896 1902
M  V30 3798 1 1898 1899
M  V30 3799 1 1898 6326
M  V30 3800 1 1898 6327
M  V30 3801 1 1899 1900
M  V30 3802 2 1899 1901
M  V30 3803 1 1900 6328
M  V30 3804 1 1900 6329
M  V30 3805 1 1902 1903
M  V30 3806 1 1902 6330
M  V30 3807 1 1903 1904
M  V30 3808 1 1903 1906
M  V30 3809 1 1903 6331
M  V30 3810 2 1904 1905
M  V30 3811 1 1904 1910
M  V30 3812 1 1906 1907
M  V30 3813 1 1906 1908
M  V30 3814 1 1906 6332
M  V30 3815 1 1907 1909
M  V30 3816 1 1907 6333
M  V30 3817 1 1907 6334
M  V30 3818 1 1908 6335
M  V30 3819 1 1908 6336
M  V30 3820 1 1908 6337
M  V30 3821 1 1909 6338
M  V30 3822 1 1909 6339
M  V30 3823 1 1909 6340
M  V30 3824 1 1910 1911
M  V30 3825 1 1910 6341
M  V30 3826 1 1911 1912
M  V30 3827 1 1911 1914
M  V30 3828 1 1911 6342
M  V30 3829 2 1912 1913
M  V30 3830 1 1912 1916
M  V30 3831 1 1914 1915
M  V30 3832 1 1914 6343
M  V30 3833 1 1914 6344
M  V30 3834 1 1915 6345
M  V30 3835 1 1916 1917
M  V30 3836 1 1916 6346
M  V30 3837 1 1917 1918
M  V30 3838 1 1917 1920
M  V30 3839 1 1917 6347
M  V30 3840 2 1918 1919
M  V30 3841 1 1918 1924
M  V30 3842 1 1920 1921
M  V30 3843 1 1920 6348
M  V30 3844 1 1920 6349
M  V30 3845 2 1921 1922
M  V30 3846 1 1921 1923
M  V30 3847 1 1924 1925
M  V30 3848 1 1924 6350
M  V30 3849 1 1925 1926
M  V30 3850 1 1925 1928
M  V30 3851 1 1925 6351
M  V30 3852 2 1926 1927
M  V30 3853 1 1926 1933
M  V30 3854 1 1928 1929
M  V30 3855 1 1928 6352
M  V30 3856 1 1928 6353
M  V30 3857 1 1929 1930
M  V30 3858 1 1929 6354
M  V30 3859 1 1929 6355
M  V30 3860 2 1930 1931
M  V30 3861 1 1930 1932
M  V30 3862 1 1933 1934
M  V30 3863 1 1933 6356
M  V30 3864 1 1934 1935
M  V30 3865 1 1934 1937
M  V30 3866 1 1934 6357
M  V30 3867 2 1935 1936
M  V30 3868 1 1935 1944
M  V30 3869 1 1937 1938
M  V30 3870 1 1937 6358
M  V30 3871 1 1937 6359
M  V30 3872 2 1938 1939
M  V30 3873 1 1938 1940
M  V30 3874 1 1939 1941
M  V30 3875 1 1939 6360
M  V30 3876 2 1940 1942
M  V30 3877 1 1940 6361
M  V30 3878 2 1941 1943
M  V30 3879 1 1941 6362
M  V30 3880 1 1942 1943
M  V30 3881 1 1942 6363
M  V30 3882 1 1943 6364
M  V30 3883 1 1944 1945
M  V30 3884 1 1944 6365
M  V30 3885 1 1945 1946
M  V30 3886 1 1945 1948
M  V30 3887 1 1945 6366
M  V30 3888 2 1946 1947
M  V30 3889 1 1946 1950
M  V30 3890 1 1948 1949
M  V30 3891 1 1948 6367
M  V30 3892 1 1948 6368
M  V30 3893 1 1949 6369
M  V30 3894 1 1950 1951
M  V30 3895 1 1950 6370
M  V30 3896 1 1951 1952
M  V30 3897 1 1951 1954
M  V30 3898 1 1951 6371
M  V30 3899 2 1952 1953
M  V30 3900 1 1952 1956
M  V30 3901 1 1954 1955
M  V30 3902 1 1954 6372
M  V30 3903 1 1954 6373
M  V30 3904 1 1955 6374
M  V30 3905 1 1956 1957
M  V30 3906 1 1956 6375
M  V30 3907 1 1957 1958
M  V30 3908 1 1957 1960
M  V30 3909 1 1957 6376
M  V30 3910 2 1958 1959
M  V30 3911 1 1958 1964
M  V30 3912 1 1960 1961
M  V30 3913 1 1960 6377
M  V30 3914 1 1960 6378
M  V30 3915 1 1961 1962
M  V30 3916 2 1961 1963
M  V30 3917 1 1962 6379
M  V30 3918 1 1962 6380
M  V30 3919 1 1964 1965
M  V30 3920 1 1964 6381
M  V30 3921 1 1965 1966
M  V30 3922 1 1965 1968
M  V30 3923 1 1965 6382
M  V30 3924 2 1966 1967
M  V30 3925 1 1966 1971
M  V30 3926 1 1968 1969
M  V30 3927 1 1968 1970
M  V30 3928 1 1968 6383
M  V30 3929 1 1969 6384
M  V30 3930 1 1969 6385
M  V30 3931 1 1969 6386
M  V30 3932 1 1970 6387
M  V30 3933 1 1970 6388
M  V30 3934 1 1970 6389
M  V30 3935 1 1971 1972
M  V30 3936 1 1971 6390
M  V30 3937 1 1972 1973
M  V30 3938 1 1972 1975
M  V30 3939 1 1972 6391
M  V30 3940 2 1973 1974
M  V30 3941 1 1973 1976
M  V30 3942 1 1975 6392
M  V30 3943 1 1975 6393
M  V30 3944 1 1975 6394
M  V30 3945 1 1976 1977
M  V30 3946 1 1976 6395
M  V30 3947 1 1977 1978
M  V30 3948 1 1977 1980
M  V30 3949 1 1977 6396
M  V30 3950 2 1978 1979
M  V30 3951 1 1978 1984
M  V30 3952 1 1980 1981
M  V30 3953 1 1980 6397
M  V30 3954 1 1980 6398
M  V30 3955 1 1981 1982
M  V30 3956 2 1981 1983
M  V30 3957 1 1982 6399
M  V30 3958 1 1982 6400
M  V30 3959 1 1984 1985
M  V30 3960 1 1984 6401
M  V30 3961 1 1985 1986
M  V30 3962 1 1985 1988
M  V30 3963 1 1985 6402
M  V30 3964 2 1986 1987
M  V30 3965 1 1986 1996
M  V30 3966 1 1988 1989
M  V30 3967 1 1988 6403
M  V30 3968 1 1988 6404
M  V30 3969 2 1989 1990
M  V30 3970 1 1989 1991
M  V30 3971 1 1990 1992
M  V30 3972 1 1990 6405
M  V30 3973 2 1991 1993
M  V30 3974 1 1991 6406
M  V30 3975 2 1992 1994
M  V30 3976 1 1992 6407
M  V30 3977 1 1993 1994
M  V30 3978 1 1993 6408
M  V30 3979 1 1994 1995
M  V30 3980 1 1995 6409
M  V30 3981 1 1996 1997
M  V30 3982 1 1996 6410
M  V30 3983 1 1997 1998
M  V30 3984 1 1997 2000
M  V30 3985 1 1997 6411
M  V30 3986 2 1998 1999
M  V30 3987 1 1998 2005
M  V30 3988 1 2000 2001
M  V30 3989 1 2000 6412
M  V30 3990 1 2000 6413
M  V30 3991 1 2001 2002
M  V30 3992 1 2001 6414
M  V30 3993 1 2001 6415
M  V30 3994 1 2002 2003
M  V30 3995 2 2002 2004
M  V30 3996 1 2003 6416
M  V30 3997 1 2003 6417
M  V30 3998 1 2005 2006
M  V30 3999 1 2005 6418
M  V30 4000 1 2006 2007
M  V30 4001 1 2006 2009
M  V30 4002 1 2006 6419
M  V30 4003 2 2007 2008
M  V30 4004 1 2007 2014
M  V30 4005 1 2009 2010
M  V30 4006 1 2009 6420
M  V30 4007 1 2009 6421
M  V30 4008 1 2010 2011
M  V30 4009 1 2010 6422
M  V30 4010 1 2010 6423
M  V30 4011 1 2011 2012
M  V30 4012 1 2011 6424
M  V30 4013 1 2011 6425
M  V30 4014 1 2012 2013
M  V30 4015 1 2012 6426
M  V30 4016 1 2012 6427
M  V30 4017 1 2013 6428
M  V30 4018 1 2013 6429
M  V30 4019 1 2013 6430
M  V30 4020 1 2014 2015
M  V30 4021 1 2014 6431
M  V30 4022 1 2015 2016
M  V30 4023 1 2015 2018
M  V30 4024 1 2015 6432
M  V30 4025 2 2016 2017
M  V30 4026 1 2016 2021
M  V30 4027 1 2018 2019
M  V30 4028 1 2018 2020
M  V30 4029 1 2018 6433
M  V30 4030 1 2019 6434
M  V30 4031 1 2019 6435
M  V30 4032 1 2019 6436
M  V30 4033 1 2020 6437
M  V30 4034 1 2020 6438
M  V30 4035 1 2020 6439
M  V30 4036 1 2021 2022
M  V30 4037 1 2021 6440
M  V30 4038 1 2022 2023
M  V30 4039 1 2022 6441
M  V30 4040 1 2022 6442
M  V30 4041 2 2023 2024
M  V30 4042 1 2023 2025
M  V30 4043 1 2025 2026
M  V30 4044 1 2025 6443
M  V30 4045 1 2026 2027
M  V30 4046 1 2026 2029
M  V30 4047 1 2026 6444
M  V30 4048 2 2027 2028
M  V30 4049 1 2027 2033
M  V30 4050 1 2029 2030
M  V30 4051 1 2029 6445
M  V30 4052 1 2029 6446
M  V30 4053 1 2030 2031
M  V30 4054 1 2030 6447
M  V30 4055 1 2030 6448
M  V30 4056 1 2031 2032
M  V30 4057 1 2032 6449
M  V30 4058 1 2032 6450
M  V30 4059 1 2032 6451
M  V30 4060 1 2033 2034
M  V30 4061 1 2033 6452
M  V30 4062 1 2034 2035
M  V30 4063 1 2034 2037
M  V30 4064 1 2034 6453
M  V30 4065 2 2035 2036
M  V30 4066 1 2035 2042
M  V30 4067 1 2037 2038
M  V30 4068 1 2037 6454
M  V30 4069 1 2037 6455
M  V30 4070 1 2038 2039
M  V30 4071 1 2038 6456
M  V30 4072 1 2038 6457
M  V30 4073 1 2039 2040
M  V30 4074 2 2039 2041
M  V30 4075 1 2040 6458
M  V30 4076 1 2040 6459
M  V30 4077 1 2042 2043
M  V30 4078 1 2042 6460
M  V30 4079 1 2043 2044
M  V30 4080 1 2043 2046
M  V30 4081 1 2043 6461
M  V30 4082 2 2044 2045
M  V30 4083 1 2044 2051
M  V30 4084 1 2046 2047
M  V30 4085 1 2046 6462
M  V30 4086 1 2046 6463
M  V30 4087 1 2047 2048
M  V30 4088 1 2047 6464
M  V30 4089 1 2047 6465
M  V30 4090 1 2048 2049
M  V30 4091 1 2048 6466
M  V30 4092 1 2048 6467
M  V30 4093 1 2049 2050
M  V30 4094 1 2049 6468
M  V30 4095 1 2049 6469
M  V30 4096 1 2050 6470
M  V30 4097 1 2050 6471
M  V30 4098 1 2050 6472
M  V30 4099 1 2051 2052
M  V30 4100 1 2051 6473
M  V30 4101 1 2052 2053
M  V30 4102 1 2052 2055
M  V30 4103 1 2052 6474
M  V30 4104 2 2053 2054
M  V30 4105 1 2053 2063
M  V30 4106 1 2055 2056
M  V30 4107 1 2055 6475
M  V30 4108 1 2055 6476
M  V30 4109 2 2056 2057
M  V30 4110 1 2056 2058
M  V30 4111 1 2057 2059
M  V30 4112 1 2057 6477
M  V30 4113 2 2058 2060
M  V30 4114 1 2058 6478
M  V30 4115 2 2059 2061
M  V30 4116 1 2059 6479
M  V30 4117 1 2060 2061
M  V30 4118 1 2060 6480
M  V30 4119 1 2061 2062
M  V30 4120 1 2062 6481
M  V30 4121 1 2063 2064
M  V30 4122 1 2063 6482
M  V30 4123 1 2064 2065
M  V30 4124 1 2064 2067
M  V30 4125 1 2064 6483
M  V30 4126 2 2065 2066
M  V30 4127 1 2065 2069
M  V30 4128 1 2067 2068
M  V30 4129 1 2067 6484
M  V30 4130 1 2067 6485
M  V30 4131 1 2068 6486
M  V30 4132 1 2069 2070
M  V30 4133 1 2069 6487
M  V30 4134 1 2070 2071
M  V30 4135 1 2070 2073
M  V30 4136 1 2070 6488
M  V30 4137 2 2071 2072
M  V30 4138 1 2071 2076
M  V30 4139 1 2073 2074
M  V30 4140 1 2073 2075
M  V30 4141 1 2073 6489
M  V30 4142 1 2074 6490
M  V30 4143 1 2074 6491
M  V30 4144 1 2074 6492
M  V30 4145 1 2075 6493
M  V30 4146 1 2076 2077
M  V30 4147 1 2076 6494
M  V30 4148 1 2077 2078
M  V30 4149 1 2077 2080
M  V30 4150 1 2077 6495
M  V30 4151 2 2078 2079
M  V30 4152 1 2078 2084
M  V30 4153 1 2080 2081
M  V30 4154 1 2080 6496
M  V30 4155 1 2080 6497
M  V30 4156 1 2081 2082
M  V30 4157 1 2081 2083
M  V30 4158 1 2081 6498
M  V30 4159 1 2082 6499
M  V30 4160 1 2082 6500
M  V30 4161 1 2082 6501
M  V30 4162 1 2083 6502
M  V30 4163 1 2083 6503
M  V30 4164 1 2083 6504
M  V30 4165 1 2084 2085
M  V30 4166 1 2084 6505
M  V30 4167 1 2085 2086
M  V30 4168 1 2085 2088
M  V30 4169 1 2085 6506
M  V30 4170 2 2086 2087
M  V30 4171 1 2086 2093
M  V30 4172 1 2088 2089
M  V30 4173 1 2088 6507
M  V30 4174 1 2088 6508
M  V30 4175 1 2089 2090
M  V30 4176 1 2089 6509
M  V30 4177 1 2089 6510
M  V30 4178 1 2090 2091
M  V30 4179 2 2090 2092
M  V30 4180 1 2091 6511
M  V30 4181 1 2091 6512
M  V30 4182 1 2093 2094
M  V30 4183 1 2093 6513
M  V30 4184 1 2094 2095
M  V30 4185 1 2094 6514
M  V30 4186 1 2094 6515
M  V30 4187 2 2095 2096
M  V30 4188 1 2095 2097
M  V30 4189 1 2097 2098
M  V30 4190 1 2097 2103
M  V30 4191 1 2098 2099
M  V30 4192 1 2098 2101
M  V30 4193 1 2098 6516
M  V30 4194 2 2099 2100
M  V30 4195 1 2099 2104
M  V30 4196 1 2101 2102
M  V30 4197 1 2101 6517
M  V30 4198 1 2101 6518
M  V30 4199 1 2102 2103
M  V30 4200 1 2102 6519
M  V30 4201 1 2102 6520
M  V30 4202 1 2103 6521
M  V30 4203 1 2103 6522
M  V30 4204 1 2104 2105
M  V30 4205 1 2104 2110
M  V30 4206 1 2105 2106
M  V30 4207 1 2105 2108
M  V30 4208 1 2105 6523
M  V30 4209 2 2106 2107
M  V30 4210 1 2106 2111
M  V30 4211 1 2108 2109
M  V30 4212 1 2108 6524
M  V30 4213 1 2108 6525
M  V30 4214 1 2109 2110
M  V30 4215 1 2109 6526
M  V30 4216 1 2109 6527
M  V30 4217 1 2110 6528
M  V30 4218 1 2110 6529
M  V30 4219 1 2111 2112
M  V30 4220 1 2111 6530
M  V30 4221 1 2112 2113
M  V30 4222 1 2112 6531
M  V30 4223 1 2112 6532
M  V30 4224 2 2113 2114
M  V30 4225 1 2113 2115
M  V30 4226 1 2115 2116
M  V30 4227 1 2115 6533
M  V30 4228 1 2116 2117
M  V30 4229 1 2116 2119
M  V30 4230 1 2116 6534
M  V30 4231 2 2117 2118
M  V30 4232 1 2117 2122
M  V30 4233 1 2119 2120
M  V30 4234 1 2119 2121
M  V30 4235 1 2119 6535
M  V30 4236 1 2120 6536
M  V30 4237 1 2120 6537
M  V30 4238 1 2120 6538
M  V30 4239 1 2121 6539
M  V30 4240 1 2122 2123
M  V30 4241 1 2122 6540
M  V30 4242 1 2123 2124
M  V30 4243 1 2123 6541
M  V30 4244 1 2123 6542
M  V30 4245 2 2124 2125
M  V30 4246 1 2124 2126
M  V30 4247 1 2126 2127
M  V30 4248 1 2126 6543
M  V30 4249 1 2127 2128
M  V30 4250 1 2127 2130
M  V30 4251 1 2127 6544
M  V30 4252 2 2128 2129
M  V30 4253 1 2128 2135
M  V30 4254 1 2130 2131
M  V30 4255 1 2130 6545
M  V30 4256 1 2130 6546
M  V30 4257 1 2131 2132
M  V30 4258 1 2131 6547
M  V30 4259 1 2131 6548
M  V30 4260 1 2132 2133
M  V30 4261 1 2132 6549
M  V30 4262 1 2132 6550
M  V30 4263 1 2133 2134
M  V30 4264 1 2133 6551
M  V30 4265 1 2133 6552
M  V30 4266 1 2134 6553
M  V30 4267 1 2134 6554
M  V30 4268 1 2134 6555
M  V30 4269 1 2135 2136
M  V30 4270 1 2135 6556
M  V30 4271 1 2136 2137
M  V30 4272 1 2136 2139
M  V30 4273 1 2136 6557
M  V30 4274 2 2137 2138
M  V30 4275 1 2137 2141
M  V30 4276 1 2139 2140
M  V30 4277 1 2139 6558
M  V30 4278 1 2139 6559
M  V30 4279 1 2140 6560
M  V30 4280 1 2141 2142
M  V30 4281 1 2141 6561
M  V30 4282 1 2142 2143
M  V30 4283 1 2142 2145
M  V30 4284 1 2142 6562
M  V30 4285 2 2143 2144
M  V30 4286 1 2143 2151
M  V30 4287 1 2145 2146
M  V30 4288 1 2145 6563
M  V30 4289 1 2145 6564
M  V30 4290 2 2146 2147
M  V30 4291 1 2146 2148
M  V30 4292 1 2147 2150
M  V30 4293 1 2147 6565
M  V30 4294 2 2148 2149
M  V30 4295 1 2149 2150
M  V30 4296 1 2149 6566
M  V30 4297 1 2150 9115
M  V30 4298 1 2151 2152
M  V30 4299 1 2151 6567
M  V30 4300 1 2152 2153
M  V30 4301 1 2152 2155
M  V30 4302 1 2152 6568
M  V30 4303 2 2153 2154
M  V30 4304 1 2153 2162
M  V30 4305 1 2155 2156
M  V30 4306 1 2155 6569
M  V30 4307 1 2155 6570
M  V30 4308 2 2156 2157
M  V30 4309 1 2156 2158
M  V30 4310 1 2157 2159
M  V30 4311 1 2157 6571
M  V30 4312 2 2158 2160
M  V30 4313 1 2158 6572
M  V30 4314 2 2159 2161
M  V30 4315 1 2159 6573
M  V30 4316 1 2160 2161
M  V30 4317 1 2160 6574
M  V30 4318 1 2161 6575
M  V30 4319 1 2162 2163
M  V30 4320 1 2162 6576
M  V30 4321 1 2163 2164
M  V30 4322 1 2163 2166
M  V30 4323 1 2163 6577
M  V30 4324 2 2164 2165
M  V30 4325 1 2164 2167
M  V30 4326 1 2166 6578
M  V30 4327 1 2166 6579
M  V30 4328 1 2166 6580
M  V30 4329 1 2167 2168
M  V30 4330 1 2167 6581
M  V30 4331 1 2168 2169
M  V30 4332 1 2168 2171
M  V30 4333 1 2168 6582
M  V30 4334 2 2169 2170
M  V30 4335 1 2169 2175
M  V30 4336 1 2171 2172
M  V30 4337 1 2171 2173
M  V30 4338 1 2171 6583
M  V30 4339 1 2172 2174
M  V30 4340 1 2172 6584
M  V30 4341 1 2172 6585
M  V30 4342 1 2173 6586
M  V30 4343 1 2173 6587
M  V30 4344 1 2173 6588
M  V30 4345 1 2174 6589
M  V30 4346 1 2174 6590
M  V30 4347 1 2174 6591
M  V30 4348 1 2175 2176
M  V30 4349 1 2175 6592
M  V30 4350 1 2176 2177
M  V30 4351 1 2176 6593
M  V30 4352 1 2176 6594
M  V30 4353 2 2177 2178
M  V30 4354 1 2177 2179
M  V30 4355 1 2179 2180
M  V30 4356 1 2179 6595
M  V30 4357 1 2180 2181
M  V30 4358 1 2180 2183
M  V30 4359 1 2180 6596
M  V30 4360 2 2181 2182
M  V30 4361 1 2181 2187
M  V30 4362 1 2183 2184
M  V30 4363 1 2183 6597
M  V30 4364 1 2183 6598
M  V30 4365 1 2184 2185
M  V30 4366 1 2184 2186
M  V30 4367 1 2184 6599
M  V30 4368 1 2185 6600
M  V30 4369 1 2185 6601
M  V30 4370 1 2185 6602
M  V30 4371 1 2186 6603
M  V30 4372 1 2186 6604
M  V30 4373 1 2186 6605
M  V30 4374 1 2187 2188
M  V30 4375 1 2187 6606
M  V30 4376 1 2188 2189
M  V30 4377 1 2188 2191
M  V30 4378 1 2188 6607
M  V30 4379 2 2189 2190
M  V30 4380 1 2189 2192
M  V30 4381 1 2191 6608
M  V30 4382 1 2191 6609
M  V30 4383 1 2191 6610
M  V30 4384 1 2192 2193
M  V30 4385 1 2192 6611
M  V30 4386 1 2193 2194
M  V30 4387 1 2193 2196
M  V30 4388 1 2193 6612
M  V30 4389 2 2194 2195
M  V30 4390 1 2194 2200
M  V30 4391 1 2196 2197
M  V30 4392 1 2196 6613
M  V30 4393 1 2196 6614
M  V30 4394 1 2197 2198
M  V30 4395 1 2197 2199
M  V30 4396 1 2197 6615
M  V30 4397 1 2198 6616
M  V30 4398 1 2198 6617
M  V30 4399 1 2198 6618
M  V30 4400 1 2199 6619
M  V30 4401 1 2199 6620
M  V30 4402 1 2199 6621
M  V30 4403 1 2200 2201
M  V30 4404 1 2200 6622
M  V30 4405 1 2201 2202
M  V30 4406 1 2201 2204
M  V30 4407 1 2201 6623
M  V30 4408 2 2202 2203
M  V30 4409 1 2202 2212
M  V30 4410 1 2204 2205
M  V30 4411 1 2204 6624
M  V30 4412 1 2204 6625
M  V30 4413 2 2205 2206
M  V30 4414 1 2205 2207
M  V30 4415 1 2206 2208
M  V30 4416 1 2206 6626
M  V30 4417 2 2207 2209
M  V30 4418 1 2207 6627
M  V30 4419 2 2208 2210
M  V30 4420 1 2208 6628
M  V30 4421 1 2209 2210
M  V30 4422 1 2209 6629
M  V30 4423 1 2210 2211
M  V30 4424 1 2211 6630
M  V30 4425 1 2212 2213
M  V30 4426 1 2212 6631
M  V30 4427 1 2213 2214
M  V30 4428 1 2213 2216
M  V30 4429 1 2213 6632
M  V30 4430 2 2214 2215
M  V30 4431 1 2214 2224
M  V30 4432 1 2216 2217
M  V30 4433 1 2216 6633
M  V30 4434 1 2216 6634
M  V30 4435 2 2217 2218
M  V30 4436 1 2217 2219
M  V30 4437 1 2218 2220
M  V30 4438 1 2218 6635
M  V30 4439 2 2219 2221
M  V30 4440 1 2219 6636
M  V30 4441 2 2220 2222
M  V30 4442 1 2220 6637
M  V30 4443 1 2221 2222
M  V30 4444 1 2221 6638
M  V30 4445 1 2222 2223
M  V30 4446 1 2223 6639
M  V30 4447 1 2224 2225
M  V30 4448 1 2224 2230
M  V30 4449 1 2225 2226
M  V30 4450 1 2225 2228
M  V30 4451 1 2225 6640
M  V30 4452 2 2226 2227
M  V30 4453 1 2226 2231
M  V30 4454 1 2228 2229
M  V30 4455 1 2228 6641
M  V30 4456 1 2228 6642
M  V30 4457 1 2229 2230
M  V30 4458 1 2229 6643
M  V30 4459 1 2229 6644
M  V30 4460 1 2230 6645
M  V30 4461 1 2230 6646
M  V30 4462 1 2231 2232
M  V30 4463 1 2231 6647
M  V30 4464 1 2232 2233
M  V30 4465 1 2232 2235
M  V30 4466 1 2232 6648
M  V30 4467 2 2233 2234
M  V30 4468 1 2233 2237
M  V30 4469 1 2235 2236
M  V30 4470 1 2235 6649
M  V30 4471 1 2235 6650
M  V30 4472 1 2236 6651
M  V30 4473 1 2237 2238
M  V30 4474 1 2237 6652
M  V30 4475 1 2238 2239
M  V30 4476 1 2238 2241
M  V30 4477 1 2238 6653
M  V30 4478 2 2239 2240
M  V30 4479 1 2239 2242
M  V30 4480 1 2241 6654
M  V30 4481 1 2241 6655
M  V30 4482 1 2241 6656
M  V30 4483 1 2242 2243
M  V30 4484 1 2242 6657
M  V30 4485 1 2243 2244
M  V30 4486 1 2243 2246
M  V30 4487 1 2243 6658
M  V30 4488 2 2244 2245
M  V30 4489 1 2244 2253
M  V30 4490 1 2246 2247
M  V30 4491 1 2246 6659
M  V30 4492 1 2246 6660
M  V30 4493 1 2247 2248
M  V30 4494 1 2247 6661
M  V30 4495 1 2247 6662
M  V30 4496 1 2248 2249
M  V30 4497 1 2248 6663
M  V30 4498 1 2248 6664
M  V30 4499 1 2249 2250
M  V30 4500 1 2249 6665
M  V30 4501 1 2250 2251
M  V30 4502 2 2250 2252
M  V30 4503 1 2251 6666
M  V30 4504 1 2251 6667
M  V30 4505 1 2252 6668
M  V30 4506 1 2252 6669
M  V30 4507 1 2253 2254
M  V30 4508 1 2253 6670
M  V30 4509 1 2254 2255
M  V30 4510 1 2254 2257
M  V30 4511 1 2254 6671
M  V30 4512 2 2255 2256
M  V30 4513 1 2255 2261
M  V30 4514 1 2257 2258
M  V30 4515 1 2257 2259
M  V30 4516 1 2257 6672
M  V30 4517 1 2258 2260
M  V30 4518 1 2258 6673
M  V30 4519 1 2258 6674
M  V30 4520 1 2259 6675
M  V30 4521 1 2259 6676
M  V30 4522 1 2259 6677
M  V30 4523 1 2260 6678
M  V30 4524 1 2260 6679
M  V30 4525 1 2260 6680
M  V30 4526 1 2261 2262
M  V30 4527 1 2261 6681
M  V30 4528 1 2262 2263
M  V30 4529 1 2262 2265
M  V30 4530 1 2262 6682
M  V30 4531 2 2263 2264
M  V30 4532 1 2263 2268
M  V30 4533 1 2265 2266
M  V30 4534 1 2265 2267
M  V30 4535 1 2265 6683
M  V30 4536 1 2266 6684
M  V30 4537 1 2266 6685
M  V30 4538 1 2266 6686
M  V30 4539 1 2267 6687
M  V30 4540 1 2267 6688
M  V30 4541 1 2267 6689
M  V30 4542 1 2268 2269
M  V30 4543 1 2268 6690
M  V30 4544 1 2269 2270
M  V30 4545 1 2269 2272
M  V30 4546 1 2269 6691
M  V30 4547 2 2270 2271
M  V30 4548 1 2270 2280
M  V30 4549 1 2272 2273
M  V30 4550 1 2272 6692
M  V30 4551 1 2272 6693
M  V30 4552 2 2273 2274
M  V30 4553 1 2273 2275
M  V30 4554 1 2274 2276
M  V30 4555 1 2274 6694
M  V30 4556 2 2275 2277
M  V30 4557 1 2275 6695
M  V30 4558 2 2276 2278
M  V30 4559 1 2276 6696
M  V30 4560 1 2277 2278
M  V30 4561 1 2277 6697
M  V30 4562 1 2278 2279
M  V30 4563 1 2279 6698
M  V30 4564 1 2280 2281
M  V30 4565 1 2280 6699
M  V30 4566 1 2281 2282
M  V30 4567 1 2281 2284
M  V30 4568 1 2281 6700
M  V30 4569 2 2282 2283
M  V30 4570 1 2282 2287
M  V30 4571 1 2284 2285
M  V30 4572 1 2284 2286
M  V30 4573 1 2284 6701
M  V30 4574 1 2285 6702
M  V30 4575 1 2285 6703
M  V30 4576 1 2285 6704
M  V30 4577 1 2286 6705
M  V30 4578 1 2287 2288
M  V30 4579 1 2287 6706
M  V30 4580 1 2288 2289
M  V30 4581 1 2288 2291
M  V30 4582 1 2288 6707
M  V30 4583 2 2289 2290
M  V30 4584 1 2289 2292
M  V30 4585 1 2291 6708
M  V30 4586 1 2291 6709
M  V30 4587 1 2291 6710
M  V30 4588 1 2292 2293
M  V30 4589 1 2292 6711
M  V30 4590 1 2293 2294
M  V30 4591 1 2293 2296
M  V30 4592 1 2293 6712
M  V30 4593 2 2294 2295
M  V30 4594 1 2294 2298
M  V30 4595 1 2296 2297
M  V30 4596 1 2296 6713
M  V30 4597 1 2296 6714
M  V30 4598 1 2297 6715
M  V30 4599 1 2298 2299
M  V30 4600 1 2298 6716
M  V30 4601 1 2299 2300
M  V30 4602 1 2299 2302
M  V30 4603 1 2299 6717
M  V30 4604 2 2300 2301
M  V30 4605 1 2300 2304
M  V30 4606 1 2302 2303
M  V30 4607 1 2302 6718
M  V30 4608 1 2302 6719
M  V30 4609 1 2303 6720
M  V30 4610 1 2304 2305
M  V30 4611 1 2304 6721
M  V30 4612 1 2305 2306
M  V30 4613 1 2305 2308
M  V30 4614 1 2305 6722
M  V30 4615 2 2306 2307
M  V30 4616 1 2306 2314
M  V30 4617 1 2308 2309
M  V30 4618 1 2308 6723
M  V30 4619 1 2308 6724
M  V30 4620 2 2309 2310
M  V30 4621 1 2309 2311
M  V30 4622 1 2310 2313
M  V30 4623 1 2310 6725
M  V30 4624 2 2311 2312
M  V30 4625 1 2312 2313
M  V30 4626 1 2312 6726
M  V30 4627 1 2313 9116
M  V30 4628 1 2314 2315
M  V30 4629 1 2314 6727
M  V30 4630 1 2315 2316
M  V30 4631 1 2315 2318
M  V30 4632 1 2315 6728
M  V30 4633 2 2316 2317
M  V30 4634 1 2316 2319
M  V30 4635 1 2318 6729
M  V30 4636 1 2318 6730
M  V30 4637 1 2318 6731
M  V30 4638 1 2319 2320
M  V30 4639 1 2319 6732
M  V30 4640 1 2320 2321
M  V30 4641 1 2320 2323
M  V30 4642 1 2320 6733
M  V30 4643 2 2321 2322
M  V30 4644 1 2321 2324
M  V30 4645 1 2323 6734
M  V30 4646 1 2323 6735
M  V30 4647 1 2323 6736
M  V30 4648 1 2324 2325
M  V30 4649 1 2324 6737
M  V30 4650 1 2325 2326
M  V30 4651 1 2325 2328
M  V30 4652 1 2325 6738
M  V30 4653 2 2326 2327
M  V30 4654 1 2326 2331
M  V30 4655 1 2328 2329
M  V30 4656 1 2328 2330
M  V30 4657 1 2328 6739
M  V30 4658 1 2329 6740
M  V30 4659 1 2329 6741
M  V30 4660 1 2329 6742
M  V30 4661 1 2330 6743
M  V30 4662 1 2330 6744
M  V30 4663 1 2330 6745
M  V30 4664 1 2331 2332
M  V30 4665 1 2331 6746
M  V30 4666 1 2332 2333
M  V30 4667 1 2332 2335
M  V30 4668 1 2332 6747
M  V30 4669 2 2333 2334
M  V30 4670 1 2333 2339
M  V30 4671 1 2335 2336
M  V30 4672 1 2335 6748
M  V30 4673 1 2335 6749
M  V30 4674 2 2336 2337
M  V30 4675 1 2336 2338
M  V30 4676 1 2339 2340
M  V30 4677 1 2339 6750
M  V30 4678 1 2340 2341
M  V30 4679 1 2340 2343
M  V30 4680 1 2340 6751
M  V30 4681 2 2341 2342
M  V30 4682 1 2341 2344
M  V30 4683 1 2343 6752
M  V30 4684 1 2343 6753
M  V30 4685 1 2343 6754
M  V30 4686 1 2344 2345
M  V30 4687 1 2344 6755
M  V30 4688 1 2345 2346
M  V30 4689 1 2345 2348
M  V30 4690 1 2345 6756
M  V30 4691 2 2346 2347
M  V30 4692 1 2346 2352
M  V30 4693 1 2348 2349
M  V30 4694 1 2348 6757
M  V30 4695 1 2348 6758
M  V30 4696 1 2349 2350
M  V30 4697 1 2349 2351
M  V30 4698 1 2349 6759
M  V30 4699 1 2350 6760
M  V30 4700 1 2350 6761
M  V30 4701 1 2350 6762
M  V30 4702 1 2351 6763
M  V30 4703 1 2351 6764
M  V30 4704 1 2351 6765
M  V30 4705 1 2352 2353
M  V30 4706 1 2352 6766
M  V30 4707 1 2353 2354
M  V30 4708 1 2353 2356
M  V30 4709 1 2353 6767
M  V30 4710 2 2354 2355
M  V30 4711 1 2354 2358
M  V30 4712 1 2356 2357
M  V30 4713 1 2356 6768
M  V30 4714 1 2356 6769
M  V30 4715 1 2357 6770
M  V30 4716 1 2358 2359
M  V30 4717 1 2358 6771
M  V30 4718 1 2359 2360
M  V30 4719 1 2359 2362
M  V30 4720 1 2359 6772
M  V30 4721 2 2360 2361
M  V30 4722 1 2360 2367
M  V30 4723 1 2362 2363
M  V30 4724 1 2362 6773
M  V30 4725 1 2362 6774
M  V30 4726 1 2363 2364
M  V30 4727 1 2363 6775
M  V30 4728 1 2363 6776
M  V30 4729 2 2364 2365
M  V30 4730 1 2364 2366
M  V30 4731 1 2367 2368
M  V30 4732 1 2367 6777
M  V30 4733 1 2368 2369
M  V30 4734 1 2368 2371
M  V30 4735 1 2368 6778
M  V30 4736 2 2369 2370
M  V30 4737 1 2369 2376
M  V30 4738 1 2371 2372
M  V30 4739 1 2371 6779
M  V30 4740 1 2371 6780
M  V30 4741 1 2372 2373
M  V30 4742 1 2372 6781
M  V30 4743 1 2372 6782
M  V30 4744 1 2373 2374
M  V30 4745 1 2373 6783
M  V30 4746 1 2373 6784
M  V30 4747 1 2374 2375
M  V30 4748 1 2374 6785
M  V30 4749 1 2374 6786
M  V30 4750 1 2375 6787
M  V30 4751 1 2375 6788
M  V30 4752 1 2375 6789
M  V30 4753 1 2376 2377
M  V30 4754 1 2376 6790
M  V30 4755 1 2377 2378
M  V30 4756 1 2377 2380
M  V30 4757 1 2377 6791
M  V30 4758 2 2378 2379
M  V30 4759 1 2378 2381
M  V30 4760 1 2380 6792
M  V30 4761 1 2380 6793
M  V30 4762 1 2380 6794
M  V30 4763 1 2381 2382
M  V30 4764 1 2381 6795
M  V30 4765 1 2382 2383
M  V30 4766 1 2382 2385
M  V30 4767 1 2382 6796
M  V30 4768 2 2383 2384
M  V30 4769 1 2383 2389
M  V30 4770 1 2385 2386
M  V30 4771 1 2385 6797
M  V30 4772 1 2385 6798
M  V30 4773 1 2386 2387
M  V30 4774 1 2386 2388
M  V30 4775 1 2386 6799
M  V30 4776 1 2387 6800
M  V30 4777 1 2387 6801
M  V30 4778 1 2387 6802
M  V30 4779 1 2388 6803
M  V30 4780 1 2388 6804
M  V30 4781 1 2388 6805
M  V30 4782 1 2389 2390
M  V30 4783 1 2389 6806
M  V30 4784 1 2390 2391
M  V30 4785 1 2390 2393
M  V30 4786 1 2390 6807
M  V30 4787 2 2391 2392
M  V30 4788 1 2391 2398
M  V30 4789 1 2393 2394
M  V30 4790 1 2393 6808
M  V30 4791 1 2393 6809
M  V30 4792 1 2394 2395
M  V30 4793 1 2394 6810
M  V30 4794 1 2394 6811
M  V30 4795 1 2395 2396
M  V30 4796 1 2395 6812
M  V30 4797 1 2395 6813
M  V30 4798 1 2396 2397
M  V30 4799 1 2396 6814
M  V30 4800 1 2396 6815
M  V30 4801 1 2397 6816
M  V30 4802 1 2397 6817
M  V30 4803 1 2397 6818
M  V30 4804 1 2398 2399
M  V30 4805 1 2398 6819
M  V30 4806 1 2399 2400
M  V30 4807 1 2399 2402
M  V30 4808 1 2399 6820
M  V30 4809 2 2400 2401
M  V30 4810 1 2400 2410
M  V30 4811 1 2402 2403
M  V30 4812 1 2402 6821
M  V30 4813 1 2402 6822
M  V30 4814 2 2403 2404
M  V30 4815 1 2403 2405
M  V30 4816 1 2404 2406
M  V30 4817 1 2404 6823
M  V30 4818 2 2405 2407
M  V30 4819 1 2405 6824
M  V30 4820 2 2406 2408
M  V30 4821 1 2406 6825
M  V30 4822 1 2407 2408
M  V30 4823 1 2407 6826
M  V30 4824 1 2408 2409
M  V30 4825 1 2409 6827
M  V30 4826 1 2410 2411
M  V30 4827 1 2410 6828
M  V30 4828 1 2411 2412
M  V30 4829 1 2411 2414
M  V30 4830 1 2411 6829
M  V30 4831 2 2412 2413
M  V30 4832 1 2412 2418
M  V30 4833 1 2414 2415
M  V30 4834 1 2414 6830
M  V30 4835 1 2414 6831
M  V30 4836 1 2415 2416
M  V30 4837 1 2415 2417
M  V30 4838 1 2415 6832
M  V30 4839 1 2416 6833
M  V30 4840 1 2416 6834
M  V30 4841 1 2416 6835
M  V30 4842 1 2417 6836
M  V30 4843 1 2417 6837
M  V30 4844 1 2417 6838
M  V30 4845 1 2418 2419
M  V30 4846 1 2418 2424
M  V30 4847 1 2419 2420
M  V30 4848 1 2419 2422
M  V30 4849 1 2419 6839
M  V30 4850 2 2420 2421
M  V30 4851 1 2420 2425
M  V30 4852 1 2422 2423
M  V30 4853 1 2422 6840
M  V30 4854 1 2422 6841
M  V30 4855 1 2423 2424
M  V30 4856 1 2423 6842
M  V30 4857 1 2423 6843
M  V30 4858 1 2424 6844
M  V30 4859 1 2424 6845
M  V30 4860 1 2425 2426
M  V30 4861 1 2425 6846
M  V30 4862 1 2426 2427
M  V30 4863 1 2426 2429
M  V30 4864 1 2426 6847
M  V30 4865 2 2427 2428
M  V30 4866 1 2427 2433
M  V30 4867 1 2429 2430
M  V30 4868 1 2429 2431
M  V30 4869 1 2429 6848
M  V30 4870 1 2430 2432
M  V30 4871 1 2430 6849
M  V30 4872 1 2430 6850
M  V30 4873 1 2431 6851
M  V30 4874 1 2431 6852
M  V30 4875 1 2431 6853
M  V30 4876 1 2432 6854
M  V30 4877 1 2432 6855
M  V30 4878 1 2432 6856
M  V30 4879 1 2433 2434
M  V30 4880 1 2433 6857
M  V30 4881 1 2434 2435
M  V30 4882 1 2434 2437
M  V30 4883 1 2434 6858
M  V30 4884 2 2435 2436
M  V30 4885 1 2435 2441
M  V30 4886 1 2437 2438
M  V30 4887 1 2437 6859
M  V30 4888 1 2437 6860
M  V30 4889 2 2438 2439
M  V30 4890 1 2438 2440
M  V30 4891 1 2441 2442
M  V30 4892 1 2441 6861
M  V30 4893 1 2442 2443
M  V30 4894 1 2442 2445
M  V30 4895 1 2442 6862
M  V30 4896 2 2443 2444
M  V30 4897 1 2443 2450
M  V30 4898 1 2445 2446
M  V30 4899 1 2445 6863
M  V30 4900 1 2445 6864
M  V30 4901 1 2446 2447
M  V30 4902 1 2446 6865
M  V30 4903 1 2446 6866
M  V30 4904 1 2447 2448
M  V30 4905 1 2447 6867
M  V30 4906 1 2447 6868
M  V30 4907 1 2448 2449
M  V30 4908 1 2448 6869
M  V30 4909 1 2448 6870
M  V30 4910 1 2449 6871
M  V30 4911 1 2449 6872
M  V30 4912 1 2449 6873
M  V30 4913 1 2450 2451
M  V30 4914 1 2450 6874
M  V30 4915 1 2451 2452
M  V30 4916 1 2451 2454
M  V30 4917 1 2451 6875
M  V30 4918 2 2452 2453
M  V30 4919 1 2452 2456
M  V30 4920 1 2454 2455
M  V30 4921 1 2454 6876
M  V30 4922 1 2454 6877
M  V30 4923 1 2455 6878
M  V30 4924 1 2456 2457
M  V30 4925 1 2456 6879
M  V30 4926 1 2457 2458
M  V30 4927 1 2457 2460
M  V30 4928 1 2457 6880
M  V30 4929 2 2458 2459
M  V30 4930 1 2458 2462
M  V30 4931 1 2460 2461
M  V30 4932 1 2460 6881
M  V30 4933 1 2460 6882
M  V30 4934 1 2461 6883
M  V30 4935 1 2462 2463
M  V30 4936 1 2462 6884
M  V30 4937 1 2463 2464
M  V30 4938 1 2463 2466
M  V30 4939 1 2463 6885
M  V30 4940 2 2464 2465
M  V30 4941 1 2464 2473
M  V30 4942 1 2466 2467
M  V30 4943 1 2466 6886
M  V30 4944 1 2466 6887
M  V30 4945 1 2467 2468
M  V30 4946 1 2467 6888
M  V30 4947 1 2467 6889
M  V30 4948 1 2468 2469
M  V30 4949 1 2468 6890
M  V30 4950 1 2468 6891
M  V30 4951 1 2469 2470
M  V30 4952 1 2469 6892
M  V30 4953 1 2470 2471
M  V30 4954 2 2470 2472
M  V30 4955 1 2471 6893
M  V30 4956 1 2471 6894
M  V30 4957 1 2472 6895
M  V30 4958 1 2472 6896
M  V30 4959 1 2473 2474
M  V30 4960 1 2473 6897
M  V30 4961 1 2474 2475
M  V30 4962 1 2474 2477
M  V30 4963 1 2474 6898
M  V30 4964 2 2475 2476
M  V30 4965 1 2475 2481
M  V30 4966 1 2477 2478
M  V30 4967 1 2477 2479
M  V30 4968 1 2477 6899
M  V30 4969 1 2478 2480
M  V30 4970 1 2478 6900
M  V30 4971 1 2478 6901
M  V30 4972 1 2479 6902
M  V30 4973 1 2479 6903
M  V30 4974 1 2479 6904
M  V30 4975 1 2480 6905
M  V30 4976 1 2480 6906
M  V30 4977 1 2480 6907
M  V30 4978 1 2481 2482
M  V30 4979 1 2481 6908
M  V30 4980 1 2482 2483
M  V30 4981 1 2482 2485
M  V30 4982 1 2482 6909
M  V30 4983 2 2483 2484
M  V30 4984 1 2483 2489
M  V30 4985 1 2485 2486
M  V30 4986 1 2485 2487
M  V30 4987 1 2485 6910
M  V30 4988 1 2486 2488
M  V30 4989 1 2486 6911
M  V30 4990 1 2486 6912
M  V30 4991 1 2487 6913
M  V30 4992 1 2487 6914
M  V30 4993 1 2487 6915
M  V30 4994 1 2488 6916
M  V30 4995 1 2488 6917
M  V30 4996 1 2488 6918
M  V30 4997 1 2489 2490
M  V30 4998 1 2489 2495
M  V30 4999 1 2490 2491
M  V30 5000 1 2490 2493
M  V30 5001 1 2490 6919
M  V30 5002 2 2491 2492
M  V30 5003 1 2491 2496
M  V30 5004 1 2493 2494
M  V30 5005 1 2493 6920
M  V30 5006 1 2493 6921
M  V30 5007 1 2494 2495
M  V30 5008 1 2494 6922
M  V30 5009 1 2494 6923
M  V30 5010 1 2495 6924
M  V30 5011 1 2495 6925
M  V30 5012 1 2496 2497
M  V30 5013 1 2496 6926
M  V30 5014 1 2497 2498
M  V30 5015 1 2497 2500
M  V30 5016 1 2497 6927
M  V30 5017 2 2498 2499
M  V30 5018 1 2498 6928
M  V30 5019 1 2500 6929
M  V30 5020 1 2500 6930
M  V30 5021 1 2500 6931
M  V30 5022 1 2501 2502
M  V30 5023 1 2501 6932
M  V30 5024 1 2501 6933
M  V30 5025 1 2502 2503
M  V30 5026 1 2502 2505
M  V30 5027 1 2502 6934
M  V30 5028 2 2503 2504
M  V30 5029 1 2503 2508
M  V30 5030 1 2505 2506
M  V30 5031 1 2505 2507
M  V30 5032 1 2505 6935
M  V30 5033 1 2506 6936
M  V30 5034 1 2506 6937
M  V30 5035 1 2506 6938
M  V30 5036 1 2507 6939
M  V30 5037 1 2507 6940
M  V30 5038 1 2507 6941
M  V30 5039 1 2508 2509
M  V30 5040 1 2508 6942
M  V30 5041 1 2509 2510
M  V30 5042 1 2509 2512
M  V30 5043 1 2509 6943
M  V30 5044 2 2510 2511
M  V30 5045 1 2510 2517
M  V30 5046 1 2512 2513
M  V30 5047 1 2512 6944
M  V30 5048 1 2512 6945
M  V30 5049 1 2513 2514
M  V30 5050 1 2513 6946
M  V30 5051 1 2513 6947
M  V30 5052 2 2514 2515
M  V30 5053 1 2514 2516
M  V30 5054 1 2517 2518
M  V30 5055 1 2517 6948
M  V30 5056 1 2518 2519
M  V30 5057 1 2518 2521
M  V30 5058 1 2518 6949
M  V30 5059 2 2519 2520
M  V30 5060 1 2519 2523
M  V30 5061 1 2521 2522
M  V30 5062 1 2521 6950
M  V30 5063 1 2521 6951
M  V30 5064 1 2522 6952
M  V30 5065 1 2523 2524
M  V30 5066 1 2523 6953
M  V30 5067 1 2524 2525
M  V30 5068 1 2524 2527
M  V30 5069 1 2524 6954
M  V30 5070 2 2525 2526
M  V30 5071 1 2525 2534
M  V30 5072 1 2527 2528
M  V30 5073 1 2527 6955
M  V30 5074 1 2527 6956
M  V30 5075 2 2528 2529
M  V30 5076 1 2528 2530
M  V30 5077 1 2529 2531
M  V30 5078 1 2529 6957
M  V30 5079 2 2530 2532
M  V30 5080 1 2530 6958
M  V30 5081 2 2531 2533
M  V30 5082 1 2531 6959
M  V30 5083 1 2532 2533
M  V30 5084 1 2532 6960
M  V30 5085 1 2533 6961
M  V30 5086 1 2534 2535
M  V30 5087 1 2534 6962
M  V30 5088 1 2535 2536
M  V30 5089 1 2535 2538
M  V30 5090 1 2535 6963
M  V30 5091 2 2536 2537
M  V30 5092 1 2536 2542
M  V30 5093 1 2538 2539
M  V30 5094 1 2538 6964
M  V30 5095 1 2538 6965
M  V30 5096 2 2539 2540
M  V30 5097 1 2539 2541
M  V30 5098 1 2542 2543
M  V30 5099 1 2542 6966
M  V30 5100 1 2543 2544
M  V30 5101 1 2543 2546
M  V30 5102 1 2543 6967
M  V30 5103 2 2544 2545
M  V30 5104 1 2544 2551
M  V30 5105 1 2546 2547
M  V30 5106 1 2546 6968
M  V30 5107 1 2546 6969
M  V30 5108 1 2547 2548
M  V30 5109 1 2547 6970
M  V30 5110 1 2547 6971
M  V30 5111 1 2548 2549
M  V30 5112 1 2548 6972
M  V30 5113 1 2548 6973
M  V30 5114 1 2549 2550
M  V30 5115 1 2549 6974
M  V30 5116 1 2549 6975
M  V30 5117 1 2550 6976
M  V30 5118 1 2550 6977
M  V30 5119 1 2550 6978
M  V30 5120 1 2551 2552
M  V30 5121 1 2551 6979
M  V30 5122 1 2552 2553
M  V30 5123 1 2552 2555
M  V30 5124 1 2552 6980
M  V30 5125 2 2553 2554
M  V30 5126 1 2553 2562
M  V30 5127 1 2555 2556
M  V30 5128 1 2555 6981
M  V30 5129 1 2555 6982
M  V30 5130 2 2556 2557
M  V30 5131 1 2556 2558
M  V30 5132 1 2557 2559
M  V30 5133 1 2557 6983
M  V30 5134 2 2558 2560
M  V30 5135 1 2558 6984
M  V30 5136 2 2559 2561
M  V30 5137 1 2559 6985
M  V30 5138 1 2560 2561
M  V30 5139 1 2560 6986
M  V30 5140 1 2561 6987
M  V30 5141 1 2562 2563
M  V30 5142 1 2562 6988
M  V30 5143 1 2563 2564
M  V30 5144 1 2563 2566
M  V30 5145 1 2563 6989
M  V30 5146 2 2564 2565
M  V30 5147 1 2564 2571
M  V30 5148 1 2566 2567
M  V30 5149 1 2566 6990
M  V30 5150 1 2566 6991
M  V30 5151 1 2567 2568
M  V30 5152 1 2567 6992
M  V30 5153 1 2567 6993
M  V30 5154 1 2568 2569
M  V30 5155 1 2568 6994
M  V30 5156 1 2568 6995
M  V30 5157 1 2569 2570
M  V30 5158 1 2569 6996
M  V30 5159 1 2569 6997
M  V30 5160 1 2570 6998
M  V30 5161 1 2570 6999
M  V30 5162 1 2570 7000
M  V30 5163 1 2571 2572
M  V30 5164 1 2571 7001
M  V30 5165 1 2572 2573
M  V30 5166 1 2572 2575
M  V30 5167 1 2572 7002
M  V30 5168 2 2573 2574
M  V30 5169 1 2573 2578
M  V30 5170 1 2575 2576
M  V30 5171 1 2575 2577
M  V30 5172 1 2575 7003
M  V30 5173 1 2576 7004
M  V30 5174 1 2576 7005
M  V30 5175 1 2576 7006
M  V30 5176 1 2577 7007
M  V30 5177 1 2577 7008
M  V30 5178 1 2577 7009
M  V30 5179 1 2578 2579
M  V30 5180 1 2578 7010
M  V30 5181 1 2579 2580
M  V30 5182 1 2579 2582
M  V30 5183 1 2579 7011
M  V30 5184 2 2580 2581
M  V30 5185 1 2580 2586
M  V30 5186 1 2582 2583
M  V30 5187 1 2582 7012
M  V30 5188 1 2582 7013
M  V30 5189 1 2583 2584
M  V30 5190 2 2583 2585
M  V30 5191 1 2584 7014
M  V30 5192 1 2584 7015
M  V30 5193 1 2586 2587
M  V30 5194 1 2586 7016
M  V30 5195 1 2587 2588
M  V30 5196 1 2587 2590
M  V30 5197 1 2587 7017
M  V30 5198 2 2588 2589
M  V30 5199 1 2588 2592
M  V30 5200 1 2590 2591
M  V30 5201 1 2590 7018
M  V30 5202 1 2590 7019
M  V30 5203 1 2591 7020
M  V30 5204 1 2592 2593
M  V30 5205 1 2592 7021
M  V30 5206 1 2593 2594
M  V30 5207 1 2593 2596
M  V30 5208 1 2593 7022
M  V30 5209 2 2594 2595
M  V30 5210 1 2594 2599
M  V30 5211 1 2596 2597
M  V30 5212 1 2596 2598
M  V30 5213 1 2596 7023
M  V30 5214 1 2597 7024
M  V30 5215 1 2597 7025
M  V30 5216 1 2597 7026
M  V30 5217 1 2598 7027
M  V30 5218 1 2599 2600
M  V30 5219 1 2599 7028
M  V30 5220 1 2600 2601
M  V30 5221 1 2600 2603
M  V30 5222 1 2600 7029
M  V30 5223 2 2601 2602
M  V30 5224 1 2601 2607
M  V30 5225 1 2603 2604
M  V30 5226 1 2603 7030
M  V30 5227 1 2603 7031
M  V30 5228 1 2604 2605
M  V30 5229 1 2604 2606
M  V30 5230 1 2604 7032
M  V30 5231 1 2605 7033
M  V30 5232 1 2605 7034
M  V30 5233 1 2605 7035
M  V30 5234 1 2606 7036
M  V30 5235 1 2606 7037
M  V30 5236 1 2606 7038
M  V30 5237 1 2607 2608
M  V30 5238 1 2607 7039
M  V30 5239 1 2608 2609
M  V30 5240 1 2608 2611
M  V30 5241 1 2608 7040
M  V30 5242 2 2609 2610
M  V30 5243 1 2609 2616
M  V30 5244 1 2611 2612
M  V30 5245 1 2611 7041
M  V30 5246 1 2611 7042
M  V30 5247 1 2612 2613
M  V30 5248 1 2612 7043
M  V30 5249 1 2612 7044
M  V30 5250 2 2613 2614
M  V30 5251 1 2613 2615
M  V30 5252 1 2616 2617
M  V30 5253 1 2616 7045
M  V30 5254 1 2617 2618
M  V30 5255 1 2617 2620
M  V30 5256 1 2617 7046
M  V30 5257 2 2618 2619
M  V30 5258 1 2618 2625
M  V30 5259 1 2620 2621
M  V30 5260 1 2620 7047
M  V30 5261 1 2620 7048
M  V30 5262 1 2621 2622
M  V30 5263 1 2621 7049
M  V30 5264 1 2621 7050
M  V30 5265 1 2622 2623
M  V30 5266 2 2622 2624
M  V30 5267 1 2623 7051
M  V30 5268 1 2623 7052
M  V30 5269 1 2625 2626
M  V30 5270 1 2625 7053
M  V30 5271 1 2626 2627
M  V30 5272 1 2626 2629
M  V30 5273 1 2626 7054
M  V30 5274 2 2627 2628
M  V30 5275 1 2627 2637
M  V30 5276 1 2629 2630
M  V30 5277 1 2629 7055
M  V30 5278 1 2629 7056
M  V30 5279 2 2630 2631
M  V30 5280 1 2630 2632
M  V30 5281 1 2631 2633
M  V30 5282 1 2631 7057
M  V30 5283 2 2632 2634
M  V30 5284 1 2632 7058
M  V30 5285 2 2633 2635
M  V30 5286 1 2633 7059
M  V30 5287 1 2634 2635
M  V30 5288 1 2634 7060
M  V30 5289 1 2635 2636
M  V30 5290 1 2636 7061
M  V30 5291 1 2637 2638
M  V30 5292 1 2637 7062
M  V30 5293 1 2638 2639
M  V30 5294 1 2638 2641
M  V30 5295 1 2638 7063
M  V30 5296 2 2639 2640
M  V30 5297 1 2639 2644
M  V30 5298 1 2641 2642
M  V30 5299 1 2641 2643
M  V30 5300 1 2641 7064
M  V30 5301 1 2642 7065
M  V30 5302 1 2642 7066
M  V30 5303 1 2642 7067
M  V30 5304 1 2643 7068
M  V30 5305 1 2643 7069
M  V30 5306 1 2643 7070
M  V30 5307 1 2644 2645
M  V30 5308 1 2644 7071
M  V30 5309 1 2645 2646
M  V30 5310 1 2645 2648
M  V30 5311 1 2645 7072
M  V30 5312 2 2646 2647
M  V30 5313 1 2646 2655
M  V30 5314 1 2648 2649
M  V30 5315 1 2648 7073
M  V30 5316 1 2648 7074
M  V30 5317 2 2649 2650
M  V30 5318 1 2649 2651
M  V30 5319 1 2650 2652
M  V30 5320 1 2650 7075
M  V30 5321 2 2651 2653
M  V30 5322 1 2651 7076
M  V30 5323 2 2652 2654
M  V30 5324 1 2652 7077
M  V30 5325 1 2653 2654
M  V30 5326 1 2653 7078
M  V30 5327 1 2654 7079
M  V30 5328 1 2655 2656
M  V30 5329 1 2655 7080
M  V30 5330 1 2656 2657
M  V30 5331 1 2656 2659
M  V30 5332 1 2656 7081
M  V30 5333 2 2657 2658
M  V30 5334 1 2657 2661
M  V30 5335 1 2659 2660
M  V30 5336 1 2659 7082
M  V30 5337 1 2659 7083
M  V30 5338 1 2660 7084
M  V30 5339 1 2661 2662
M  V30 5340 1 2661 7085
M  V30 5341 1 2662 2663
M  V30 5342 1 2662 2665
M  V30 5343 1 2662 7086
M  V30 5344 2 2663 2664
M  V30 5345 1 2663 2668
M  V30 5346 1 2665 2666
M  V30 5347 1 2665 2667
M  V30 5348 1 2665 7087
M  V30 5349 1 2666 7088
M  V30 5350 1 2666 7089
M  V30 5351 1 2666 7090
M  V30 5352 1 2667 7091
M  V30 5353 1 2668 2669
M  V30 5354 1 2668 7092
M  V30 5355 1 2669 2670
M  V30 5356 1 2669 2672
M  V30 5357 1 2669 7093
M  V30 5358 2 2670 2671
M  V30 5359 1 2670 2675
M  V30 5360 1 2672 2673
M  V30 5361 1 2672 2674
M  V30 5362 1 2672 7094
M  V30 5363 1 2673 7095
M  V30 5364 1 2673 7096
M  V30 5365 1 2673 7097
M  V30 5366 1 2674 7098
M  V30 5367 1 2674 7099
M  V30 5368 1 2674 7100
M  V30 5369 1 2675 2676
M  V30 5370 1 2675 7101
M  V30 5371 1 2676 2677
M  V30 5372 1 2676 2679
M  V30 5373 1 2676 7102
M  V30 5374 2 2677 2678
M  V30 5375 1 2677 2683
M  V30 5376 1 2679 2680
M  V30 5377 1 2679 7103
M  V30 5378 1 2679 7104
M  V30 5379 1 2680 2681
M  V30 5380 2 2680 2682
M  V30 5381 1 2681 7105
M  V30 5382 1 2681 7106
M  V30 5383 1 2683 2684
M  V30 5384 1 2683 7107
M  V30 5385 1 2684 2685
M  V30 5386 1 2684 2687
M  V30 5387 1 2684 7108
M  V30 5388 2 2685 2686
M  V30 5389 1 2685 2688
M  V30 5390 1 2687 7109
M  V30 5391 1 2687 7110
M  V30 5392 1 2687 7111
M  V30 5393 1 2688 2689
M  V30 5394 1 2688 7112
M  V30 5395 1 2689 2690
M  V30 5396 1 2689 2692
M  V30 5397 1 2689 7113
M  V30 5398 2 2690 2691
M  V30 5399 1 2690 2696
M  V30 5400 1 2692 2693
M  V30 5401 1 2692 7114
M  V30 5402 1 2692 7115
M  V30 5403 1 2693 2694
M  V30 5404 1 2693 2695
M  V30 5405 1 2693 7116
M  V30 5406 1 2694 7117
M  V30 5407 1 2694 7118
M  V30 5408 1 2694 7119
M  V30 5409 1 2695 7120
M  V30 5410 1 2695 7121
M  V30 5411 1 2695 7122
M  V30 5412 1 2696 2697
M  V30 5413 1 2696 2702
M  V30 5414 1 2697 2698
M  V30 5415 1 2697 2700
M  V30 5416 1 2697 7123
M  V30 5417 2 2698 2699
M  V30 5418 1 2698 2703
M  V30 5419 1 2700 2701
M  V30 5420 1 2700 7124
M  V30 5421 1 2700 7125
M  V30 5422 1 2701 2702
M  V30 5423 1 2701 7126
M  V30 5424 1 2701 7127
M  V30 5425 1 2702 7128
M  V30 5426 1 2702 7129
M  V30 5427 1 2703 2704
M  V30 5428 1 2703 7130
M  V30 5429 1 2704 2705
M  V30 5430 1 2704 2707
M  V30 5431 1 2704 7131
M  V30 5432 2 2705 2706
M  V30 5433 1 2705 2712
M  V30 5434 1 2707 2708
M  V30 5435 1 2707 7132
M  V30 5436 1 2707 7133
M  V30 5437 1 2708 2709
M  V30 5438 1 2708 7134
M  V30 5439 1 2708 7135
M  V30 5440 2 2709 2710
M  V30 5441 1 2709 2711
M  V30 5442 1 2712 2713
M  V30 5443 1 2712 7136
M  V30 5444 1 2713 2714
M  V30 5445 1 2713 2716
M  V30 5446 1 2713 7137
M  V30 5447 2 2714 2715
M  V30 5448 1 2714 2719
M  V30 5449 1 2716 2717
M  V30 5450 1 2716 2718
M  V30 5451 1 2716 7138
M  V30 5452 1 2717 7139
M  V30 5453 1 2717 7140
M  V30 5454 1 2717 7141
M  V30 5455 1 2718 7142
M  V30 5456 1 2719 2720
M  V30 5457 1 2719 7143
M  V30 5458 1 2720 2721
M  V30 5459 1 2720 2723
M  V30 5460 1 2720 7144
M  V30 5461 2 2721 2722
M  V30 5462 1 2721 2726
M  V30 5463 1 2723 2724
M  V30 5464 1 2723 2725
M  V30 5465 1 2723 7145
M  V30 5466 1 2724 7146
M  V30 5467 1 2724 7147
M  V30 5468 1 2724 7148
M  V30 5469 1 2725 7149
M  V30 5470 1 2726 2727
M  V30 5471 1 2726 7150
M  V30 5472 1 2727 2728
M  V30 5473 1 2727 2730
M  V30 5474 1 2727 7151
M  V30 5475 2 2728 2729
M  V30 5476 1 2728 2731
M  V30 5477 1 2730 7152
M  V30 5478 1 2730 7153
M  V30 5479 1 2730 7154
M  V30 5480 1 2731 2732
M  V30 5481 1 2731 7155
M  V30 5482 1 2732 2733
M  V30 5483 1 2732 2735
M  V30 5484 1 2732 7156
M  V30 5485 2 2733 2734
M  V30 5486 1 2733 2739
M  V30 5487 1 2735 2736
M  V30 5488 1 2735 7157
M  V30 5489 1 2735 7158
M  V30 5490 2 2736 2737
M  V30 5491 1 2736 2738
M  V30 5492 1 2739 2740
M  V30 5493 1 2739 7159
M  V30 5494 1 2740 2741
M  V30 5495 1 2740 2743
M  V30 5496 1 2740 7160
M  V30 5497 2 2741 2742
M  V30 5498 1 2741 2747
M  V30 5499 1 2743 2744
M  V30 5500 1 2743 2745
M  V30 5501 1 2743 7161
M  V30 5502 1 2744 2746
M  V30 5503 1 2744 7162
M  V30 5504 1 2744 7163
M  V30 5505 1 2745 7164
M  V30 5506 1 2745 7165
M  V30 5507 1 2745 7166
M  V30 5508 1 2746 7167
M  V30 5509 1 2746 7168
M  V30 5510 1 2746 7169
M  V30 5511 1 2747 2748
M  V30 5512 1 2747 7170
M  V30 5513 1 2748 2749
M  V30 5514 1 2748 2751
M  V30 5515 1 2748 7171
M  V30 5516 2 2749 2750
M  V30 5517 1 2749 2754
M  V30 5518 1 2751 2752
M  V30 5519 1 2751 2753
M  V30 5520 1 2751 7172
M  V30 5521 1 2752 7173
M  V30 5522 1 2752 7174
M  V30 5523 1 2752 7175
M  V30 5524 1 2753 7176
M  V30 5525 1 2753 7177
M  V30 5526 1 2753 7178
M  V30 5527 1 2754 2755
M  V30 5528 1 2754 7179
M  V30 5529 1 2755 2756
M  V30 5530 1 2755 2758
M  V30 5531 1 2755 7180
M  V30 5532 2 2756 2757
M  V30 5533 1 2756 2761
M  V30 5534 1 2758 2759
M  V30 5535 1 2758 2760
M  V30 5536 1 2758 7181
M  V30 5537 1 2759 7182
M  V30 5538 1 2759 7183
M  V30 5539 1 2759 7184
M  V30 5540 1 2760 7185
M  V30 5541 1 2760 7186
M  V30 5542 1 2760 7187
M  V30 5543 1 2761 2762
M  V30 5544 1 2761 7188
M  V30 5545 1 2762 2763
M  V30 5546 1 2762 2765
M  V30 5547 1 2762 7189
M  V30 5548 2 2763 2764
M  V30 5549 1 2763 2772
M  V30 5550 1 2765 2766
M  V30 5551 1 2765 7190
M  V30 5552 1 2765 7191
M  V30 5553 2 2766 2767
M  V30 5554 1 2766 2768
M  V30 5555 1 2767 2769
M  V30 5556 1 2767 7192
M  V30 5557 2 2768 2770
M  V30 5558 1 2768 7193
M  V30 5559 2 2769 2771
M  V30 5560 1 2769 7194
M  V30 5561 1 2770 2771
M  V30 5562 1 2770 7195
M  V30 5563 1 2771 7196
M  V30 5564 1 2772 2773
M  V30 5565 1 2772 7197
M  V30 5566 1 2773 2774
M  V30 5567 1 2773 2776
M  V30 5568 1 2773 7198
M  V30 5569 2 2774 2775
M  V30 5570 1 2774 2780
M  V30 5571 1 2776 2777
M  V30 5572 1 2776 7199
M  V30 5573 1 2776 7200
M  V30 5574 2 2777 2778
M  V30 5575 1 2777 2779
M  V30 5576 1 2780 2781
M  V30 5577 1 2780 7201
M  V30 5578 1 2781 2782
M  V30 5579 1 2781 2784
M  V30 5580 1 2781 7202
M  V30 5581 2 2782 2783
M  V30 5582 1 2782 2789
M  V30 5583 1 2784 2785
M  V30 5584 1 2784 7203
M  V30 5585 1 2784 7204
M  V30 5586 1 2785 2786
M  V30 5587 1 2785 7205
M  V30 5588 1 2785 7206
M  V30 5589 2 2786 2787
M  V30 5590 1 2786 2788
M  V30 5591 1 2789 2790
M  V30 5592 1 2789 7207
M  V30 5593 1 2790 2791
M  V30 5594 1 2790 2793
M  V30 5595 1 2790 7208
M  V30 5596 2 2791 2792
M  V30 5597 1 2791 2797
M  V30 5598 1 2793 2794
M  V30 5599 1 2793 2795
M  V30 5600 1 2793 7209
M  V30 5601 1 2794 2796
M  V30 5602 1 2794 7210
M  V30 5603 1 2794 7211
M  V30 5604 1 2795 7212
M  V30 5605 1 2795 7213
M  V30 5606 1 2795 7214
M  V30 5607 1 2796 7215
M  V30 5608 1 2796 7216
M  V30 5609 1 2796 7217
M  V30 5610 1 2797 2798
M  V30 5611 1 2797 7218
M  V30 5612 1 2798 2799
M  V30 5613 1 2798 2801
M  V30 5614 1 2798 7219
M  V30 5615 2 2799 2800
M  V30 5616 1 2799 2803
M  V30 5617 1 2801 2802
M  V30 5618 1 2801 7220
M  V30 5619 1 2801 7221
M  V30 5620 1 2802 7222
M  V30 5621 1 2803 2804
M  V30 5622 1 2803 7223
M  V30 5623 1 2804 2805
M  V30 5624 1 2804 2807
M  V30 5625 1 2804 7224
M  V30 5626 2 2805 2806
M  V30 5627 1 2805 2811
M  V30 5628 1 2807 2808
M  V30 5629 1 2807 7225
M  V30 5630 1 2807 7226
M  V30 5631 1 2808 2809
M  V30 5632 1 2808 7227
M  V30 5633 1 2808 7228
M  V30 5634 1 2809 2810
M  V30 5635 1 2810 7229
M  V30 5636 1 2810 7230
M  V30 5637 1 2810 7231
M  V30 5638 1 2811 2812
M  V30 5639 1 2811 7232
M  V30 5640 1 2812 2813
M  V30 5641 1 2812 2815
M  V30 5642 1 2812 7233
M  V30 5643 2 2813 2814
M  V30 5644 1 2813 2816
M  V30 5645 1 2815 7234
M  V30 5646 1 2815 7235
M  V30 5647 1 2815 7236
M  V30 5648 1 2816 2817
M  V30 5649 1 2816 7237
M  V30 5650 1 2817 2818
M  V30 5651 1 2817 2820
M  V30 5652 1 2817 7238
M  V30 5653 2 2818 2819
M  V30 5654 1 2818 2823
M  V30 5655 1 2820 2821
M  V30 5656 1 2820 2822
M  V30 5657 1 2820 7239
M  V30 5658 1 2821 7240
M  V30 5659 1 2821 7241
M  V30 5660 1 2821 7242
M  V30 5661 1 2822 7243
M  V30 5662 1 2823 2824
M  V30 5663 1 2823 7244
M  V30 5664 1 2824 2825
M  V30 5665 1 2824 2827
M  V30 5666 1 2824 7245
M  V30 5667 2 2825 2826
M  V30 5668 1 2825 2831
M  V30 5669 1 2827 2828
M  V30 5670 1 2827 7246
M  V30 5671 1 2827 7247
M  V30 5672 1 2828 2829
M  V30 5673 2 2828 2830
M  V30 5674 1 2829 7248
M  V30 5675 1 2829 7249
M  V30 5676 1 2831 2832
M  V30 5677 1 2831 7250
M  V30 5678 1 2832 2833
M  V30 5679 1 2832 2835
M  V30 5680 1 2832 7251
M  V30 5681 2 2833 2834
M  V30 5682 1 2833 2843
M  V30 5683 1 2835 2836
M  V30 5684 1 2835 7252
M  V30 5685 1 2835 7253
M  V30 5686 2 2836 2837
M  V30 5687 1 2836 2838
M  V30 5688 1 2837 2839
M  V30 5689 1 2837 7254
M  V30 5690 2 2838 2840
M  V30 5691 1 2838 7255
M  V30 5692 2 2839 2841
M  V30 5693 1 2839 7256
M  V30 5694 1 2840 2841
M  V30 5695 1 2840 7257
M  V30 5696 1 2841 2842
M  V30 5697 1 2842 7258
M  V30 5698 1 2843 2844
M  V30 5699 1 2843 7259
M  V30 5700 1 2844 2845
M  V30 5701 1 2844 2847
M  V30 5702 1 2844 7260
M  V30 5703 2 2845 2846
M  V30 5704 1 2845 2851
M  V30 5705 1 2847 2848
M  V30 5706 1 2847 7261
M  V30 5707 1 2847 7262
M  V30 5708 2 2848 2849
M  V30 5709 1 2848 2850
M  V30 5710 1 2851 2852
M  V30 5711 1 2851 7263
M  V30 5712 1 2852 2853
M  V30 5713 1 2852 2855
M  V30 5714 1 2852 7264
M  V30 5715 2 2853 2854
M  V30 5716 1 2853 2859
M  V30 5717 1 2855 2856
M  V30 5718 1 2855 7265
M  V30 5719 1 2855 7266
M  V30 5720 1 2856 2857
M  V30 5721 1 2856 2858
M  V30 5722 1 2856 7267
M  V30 5723 1 2857 7268
M  V30 5724 1 2857 7269
M  V30 5725 1 2857 7270
M  V30 5726 1 2858 7271
M  V30 5727 1 2858 7272
M  V30 5728 1 2858 7273
M  V30 5729 1 2859 2860
M  V30 5730 1 2859 7274
M  V30 5731 1 2860 2861
M  V30 5732 1 2860 2863
M  V30 5733 1 2860 7275
M  V30 5734 2 2861 2862
M  V30 5735 1 2861 2865
M  V30 5736 1 2863 2864
M  V30 5737 1 2863 7276
M  V30 5738 1 2863 7277
M  V30 5739 1 2864 7278
M  V30 5740 1 2865 2866
M  V30 5741 1 2865 7279
M  V30 5742 1 2866 2867
M  V30 5743 1 2866 2869
M  V30 5744 1 2866 7280
M  V30 5745 2 2867 2868
M  V30 5746 1 2867 2872
M  V30 5747 1 2869 2870
M  V30 5748 1 2869 2871
M  V30 5749 1 2869 7281
M  V30 5750 1 2870 7282
M  V30 5751 1 2870 7283
M  V30 5752 1 2870 7284
M  V30 5753 1 2871 7285
M  V30 5754 1 2871 7286
M  V30 5755 1 2871 7287
M  V30 5756 1 2872 2873
M  V30 5757 1 2872 7288
M  V30 5758 1 2873 2874
M  V30 5759 1 2873 2876
M  V30 5760 1 2873 7289
M  V30 5761 2 2874 2875
M  V30 5762 1 2874 2879
M  V30 5763 1 2876 2877
M  V30 5764 1 2876 2878
M  V30 5765 1 2876 7290
M  V30 5766 1 2877 7291
M  V30 5767 1 2877 7292
M  V30 5768 1 2877 7293
M  V30 5769 1 2878 7294
M  V30 5770 1 2878 7295
M  V30 5771 1 2878 7296
M  V30 5772 1 2879 2880
M  V30 5773 1 2879 7297
M  V30 5774 1 2880 2881
M  V30 5775 1 2880 2883
M  V30 5776 1 2880 7298
M  V30 5777 2 2881 2882
M  V30 5778 1 2881 2887
M  V30 5779 1 2883 2884
M  V30 5780 1 2883 7299
M  V30 5781 1 2883 7300
M  V30 5782 1 2884 2885
M  V30 5783 2 2884 2886
M  V30 5784 1 2885 7301
M  V30 5785 1 2885 7302
M  V30 5786 1 2887 2888
M  V30 5787 1 2887 7303
M  V30 5788 1 2888 2889
M  V30 5789 1 2888 2891
M  V30 5790 1 2888 7304
M  V30 5791 2 2889 2890
M  V30 5792 1 2889 2892
M  V30 5793 1 2891 7305
M  V30 5794 1 2891 7306
M  V30 5795 1 2891 7307
M  V30 5796 1 2892 2893
M  V30 5797 1 2892 7308
M  V30 5798 1 2893 2894
M  V30 5799 1 2893 2896
M  V30 5800 1 2893 7309
M  V30 5801 2 2894 2895
M  V30 5802 1 2894 2903
M  V30 5803 1 2896 2897
M  V30 5804 1 2896 7310
M  V30 5805 1 2896 7311
M  V30 5806 1 2897 2898
M  V30 5807 1 2897 7312
M  V30 5808 1 2897 7313
M  V30 5809 1 2898 2899
M  V30 5810 1 2898 7314
M  V30 5811 1 2898 7315
M  V30 5812 1 2899 2900
M  V30 5813 1 2899 7316
M  V30 5814 1 2900 2901
M  V30 5815 2 2900 2902
M  V30 5816 1 2901 7317
M  V30 5817 1 2901 7318
M  V30 5818 1 2902 7319
M  V30 5819 1 2902 7320
M  V30 5820 1 2903 2904
M  V30 5821 1 2903 7321
M  V30 5822 1 2904 2905
M  V30 5823 1 2904 2907
M  V30 5824 1 2904 7322
M  V30 5825 2 2905 2906
M  V30 5826 1 2905 2911
M  V30 5827 1 2907 2908
M  V30 5828 1 2907 7323
M  V30 5829 1 2907 7324
M  V30 5830 1 2908 2909
M  V30 5831 1 2908 2910
M  V30 5832 1 2908 7325
M  V30 5833 1 2909 7326
M  V30 5834 1 2909 7327
M  V30 5835 1 2909 7328
M  V30 5836 1 2910 7329
M  V30 5837 1 2910 7330
M  V30 5838 1 2910 7331
M  V30 5839 1 2911 2912
M  V30 5840 1 2911 7332
M  V30 5841 1 2912 2913
M  V30 5842 1 2912 7333
M  V30 5843 1 2912 9070
M  V30 5844 2 2913 2914
M  V30 5845 1 2913 2915
M  V30 5846 1 2915 2916
M  V30 5847 1 2915 7334
M  V30 5848 1 2916 2917
M  V30 5849 1 2916 2919
M  V30 5850 1 2916 7335
M  V30 5851 2 2917 2918
M  V30 5852 1 2917 2920
M  V30 5853 1 2919 7336
M  V30 5854 1 2919 7337
M  V30 5855 1 2919 7338
M  V30 5856 1 2920 2921
M  V30 5857 1 2920 7339
M  V30 5858 1 2921 2922
M  V30 5859 1 2921 2924
M  V30 5860 1 2921 7340
M  V30 5861 2 2922 2923
M  V30 5862 1 2922 2929
M  V30 5863 1 2924 2925
M  V30 5864 1 2924 7341
M  V30 5865 1 2924 7342
M  V30 5866 1 2925 2926
M  V30 5867 1 2925 7343
M  V30 5868 1 2925 7344
M  V30 5869 1 2926 2927
M  V30 5870 1 2926 7345
M  V30 5871 1 2926 7346
M  V30 5872 1 2927 2928
M  V30 5873 1 2927 7347
M  V30 5874 1 2927 7348
M  V30 5875 1 2928 7349
M  V30 5876 1 2928 7350
M  V30 5877 1 2928 7351
M  V30 5878 1 2929 2930
M  V30 5879 1 2929 7352
M  V30 5880 1 2930 2931
M  V30 5881 1 2930 2933
M  V30 5882 1 2930 7353
M  V30 5883 2 2931 2932
M  V30 5884 1 2931 2939
M  V30 5885 1 2933 2934
M  V30 5886 1 2933 7354
M  V30 5887 1 2933 7355
M  V30 5888 2 2934 2935
M  V30 5889 1 2934 2936
M  V30 5890 1 2935 2938
M  V30 5891 1 2935 7356
M  V30 5892 2 2936 2937
M  V30 5893 1 2936 7357
M  V30 5894 1 2937 2938
M  V30 5895 1 2937 7358
M  V30 5896 1 2938 9117
M  V30 5897 1 2939 2940
M  V30 5898 1 2939 7359
M  V30 5899 1 2940 2941
M  V30 5900 1 2940 2943
M  V30 5901 1 2940 7360
M  V30 5902 2 2941 2942
M  V30 5903 1 2941 2951
M  V30 5904 1 2943 2944
M  V30 5905 1 2943 7361
M  V30 5906 1 2943 7362
M  V30 5907 2 2944 2945
M  V30 5908 1 2944 2946
M  V30 5909 1 2945 2947
M  V30 5910 1 2945 7363
M  V30 5911 2 2946 2948
M  V30 5912 1 2946 7364
M  V30 5913 2 2947 2949
M  V30 5914 1 2947 7365
M  V30 5915 1 2948 2949
M  V30 5916 1 2948 7366
M  V30 5917 1 2949 2950
M  V30 5918 1 2950 7367
M  V30 5919 1 2951 2952
M  V30 5920 1 2951 7368
M  V30 5921 1 2952 2953
M  V30 5922 1 2952 2955
M  V30 5923 1 2952 7369
M  V30 5924 2 2953 2954
M  V30 5925 1 2953 2958
M  V30 5926 1 2955 2956
M  V30 5927 1 2955 2957
M  V30 5928 1 2955 7370
M  V30 5929 1 2956 7371
M  V30 5930 1 2956 7372
M  V30 5931 1 2956 7373
M  V30 5932 1 2957 7374
M  V30 5933 1 2957 7375
M  V30 5934 1 2957 7376
M  V30 5935 1 2958 2959
M  V30 5936 1 2958 7377
M  V30 5937 1 2959 2960
M  V30 5938 1 2959 2962
M  V30 5939 1 2959 7378
M  V30 5940 2 2960 2961
M  V30 5941 1 2960 2970
M  V30 5942 1 2962 2963
M  V30 5943 1 2962 7379
M  V30 5944 1 2962 7380
M  V30 5945 2 2963 2964
M  V30 5946 1 2963 2965
M  V30 5947 1 2964 2966
M  V30 5948 1 2964 7381
M  V30 5949 2 2965 2967
M  V30 5950 1 2965 7382
M  V30 5951 2 2966 2968
M  V30 5952 1 2966 7383
M  V30 5953 1 2967 2968
M  V30 5954 1 2967 7384
M  V30 5955 1 2968 2969
M  V30 5956 1 2969 7385
M  V30 5957 1 2970 2971
M  V30 5958 1 2970 7386
M  V30 5959 1 2971 2972
M  V30 5960 1 2971 2974
M  V30 5961 1 2971 7387
M  V30 5962 2 2972 2973
M  V30 5963 1 2972 2978
M  V30 5964 1 2974 2975
M  V30 5965 1 2974 2976
M  V30 5966 1 2974 7388
M  V30 5967 1 2975 2977
M  V30 5968 1 2975 7389
M  V30 5969 1 2975 7390
M  V30 5970 1 2976 7391
M  V30 5971 1 2976 7392
M  V30 5972 1 2976 7393
M  V30 5973 1 2977 7394
M  V30 5974 1 2977 7395
M  V30 5975 1 2977 7396
M  V30 5976 1 2978 2979
M  V30 5977 1 2978 7397
M  V30 5978 1 2979 2980
M  V30 5979 1 2979 7398
M  V30 5980 1 2979 7399
M  V30 5981 2 2980 2981
M  V30 5982 1 2980 2982
M  V30 5983 1 2982 2983
M  V30 5984 1 2982 7400
M  V30 5985 1 2983 2984
M  V30 5986 1 2983 2986
M  V30 5987 1 2983 7401
M  V30 5988 2 2984 2985
M  V30 5989 1 2984 2990
M  V30 5990 1 2986 2987
M  V30 5991 1 2986 7402
M  V30 5992 1 2986 7403
M  V30 5993 2 2987 2988
M  V30 5994 1 2987 2989
M  V30 5995 1 2990 2991
M  V30 5996 1 2990 2996
M  V30 5997 1 2991 2992
M  V30 5998 1 2991 2994
M  V30 5999 1 2991 7404
M  V30 6000 2 2992 2993
M  V30 6001 1 2992 2997
M  V30 6002 1 2994 2995
M  V30 6003 1 2994 7405
M  V30 6004 1 2994 7406
M  V30 6005 1 2995 2996
M  V30 6006 1 2995 7407
M  V30 6007 1 2995 7408
M  V30 6008 1 2996 7409
M  V30 6009 1 2996 7410
M  V30 6010 1 2997 2998
M  V30 6011 1 2997 7411
M  V30 6012 1 2998 2999
M  V30 6013 1 2998 3001
M  V30 6014 1 2998 7412
M  V30 6015 2 2999 3000
M  V30 6016 1 2999 3002
M  V30 6017 1 3001 7413
M  V30 6018 1 3001 7414
M  V30 6019 1 3001 7415
M  V30 6020 1 3002 3003
M  V30 6021 1 3002 7416
M  V30 6022 1 3003 3004
M  V30 6023 1 3003 3006
M  V30 6024 1 3003 7417
M  V30 6025 2 3004 3005
M  V30 6026 1 3004 3011
M  V30 6027 1 3006 3007
M  V30 6028 1 3006 7418
M  V30 6029 1 3006 7419
M  V30 6030 1 3007 3008
M  V30 6031 1 3007 7420
M  V30 6032 1 3007 7421
M  V30 6033 1 3008 3009
M  V30 6034 2 3008 3010
M  V30 6035 1 3009 7422
M  V30 6036 1 3009 7423
M  V30 6037 1 3011 3012
M  V30 6038 1 3011 7424
M  V30 6039 1 3012 3013
M  V30 6040 1 3012 3015
M  V30 6041 1 3012 7425
M  V30 6042 2 3013 3014
M  V30 6043 1 3013 3019
M  V30 6044 1 3015 3016
M  V30 6045 1 3015 7426
M  V30 6046 1 3015 7427
M  V30 6047 1 3016 3017
M  V30 6048 1 3016 3018
M  V30 6049 1 3016 7428
M  V30 6050 1 3017 7429
M  V30 6051 1 3017 7430
M  V30 6052 1 3017 7431
M  V30 6053 1 3018 7432
M  V30 6054 1 3018 7433
M  V30 6055 1 3018 7434
M  V30 6056 1 3019 3020
M  V30 6057 1 3019 3025
M  V30 6058 1 3020 3021
M  V30 6059 1 3020 3023
M  V30 6060 1 3020 7435
M  V30 6061 2 3021 3022
M  V30 6062 1 3021 3026
M  V30 6063 1 3023 3024
M  V30 6064 1 3023 7436
M  V30 6065 1 3023 7437
M  V30 6066 1 3024 3025
M  V30 6067 1 3024 7438
M  V30 6068 1 3024 7439
M  V30 6069 1 3025 7440
M  V30 6070 1 3025 7441
M  V30 6071 1 3026 3027
M  V30 6072 1 3026 7442
M  V30 6073 1 3027 3028
M  V30 6074 1 3027 3030
M  V30 6075 1 3027 7443
M  V30 6076 2 3028 3029
M  V30 6077 1 3028 3031
M  V30 6078 1 3030 7444
M  V30 6079 1 3030 7445
M  V30 6080 1 3030 7446
M  V30 6081 1 3031 3032
M  V30 6082 1 3031 3037
M  V30 6083 1 3032 3033
M  V30 6084 1 3032 3035
M  V30 6085 1 3032 7447
M  V30 6086 2 3033 3034
M  V30 6087 1 3033 3038
M  V30 6088 1 3035 3036
M  V30 6089 1 3035 7448
M  V30 6090 1 3035 7449
M  V30 6091 1 3036 3037
M  V30 6092 1 3036 7450
M  V30 6093 1 3036 7451
M  V30 6094 1 3037 7452
M  V30 6095 1 3037 7453
M  V30 6096 1 3038 3039
M  V30 6097 1 3038 7454
M  V30 6098 1 3039 3040
M  V30 6099 1 3039 3042
M  V30 6100 1 3039 7455
M  V30 6101 2 3040 3041
M  V30 6102 1 3040 3049
M  V30 6103 1 3042 3043
M  V30 6104 1 3042 7456
M  V30 6105 1 3042 7457
M  V30 6106 1 3043 3044
M  V30 6107 1 3043 7458
M  V30 6108 1 3043 7459
M  V30 6109 1 3044 3045
M  V30 6110 1 3044 7460
M  V30 6111 1 3044 7461
M  V30 6112 1 3045 3046
M  V30 6113 1 3045 7462
M  V30 6114 1 3046 3047
M  V30 6115 2 3046 3048
M  V30 6116 1 3047 7463
M  V30 6117 1 3047 7464
M  V30 6118 1 3048 7465
M  V30 6119 1 3048 7466
M  V30 6120 1 3049 3050
M  V30 6121 1 3049 7467
M  V30 6122 1 3050 3051
M  V30 6123 1 3050 3053
M  V30 6124 1 3050 7468
M  V30 6125 2 3051 3052
M  V30 6126 1 3051 3056
M  V30 6127 1 3053 3054
M  V30 6128 1 3053 3055
M  V30 6129 1 3053 7469
M  V30 6130 1 3054 7470
M  V30 6131 1 3054 7471
M  V30 6132 1 3054 7472
M  V30 6133 1 3055 7473
M  V30 6134 1 3056 3057
M  V30 6135 1 3056 7474
M  V30 6136 1 3057 3058
M  V30 6137 1 3057 3060
M  V30 6138 1 3057 7475
M  V30 6139 2 3058 3059
M  V30 6140 1 3058 3064
M  V30 6141 1 3060 3061
M  V30 6142 1 3060 7476
M  V30 6143 1 3060 7477
M  V30 6144 1 3061 3062
M  V30 6145 1 3061 3063
M  V30 6146 1 3061 7478
M  V30 6147 1 3062 7479
M  V30 6148 1 3062 7480
M  V30 6149 1 3062 7481
M  V30 6150 1 3063 7482
M  V30 6151 1 3063 7483
M  V30 6152 1 3063 7484
M  V30 6153 1 3064 3065
M  V30 6154 1 3064 7485
M  V30 6155 1 3065 3066
M  V30 6156 1 3065 3068
M  V30 6157 1 3065 7486
M  V30 6158 2 3066 3067
M  V30 6159 1 3066 3072
M  V30 6160 1 3068 3069
M  V30 6161 1 3068 7487
M  V30 6162 1 3068 7488
M  V30 6163 1 3069 3070
M  V30 6164 1 3069 3071
M  V30 6165 1 3069 7489
M  V30 6166 1 3070 7490
M  V30 6167 1 3070 7491
M  V30 6168 1 3070 7492
M  V30 6169 1 3071 7493
M  V30 6170 1 3071 7494
M  V30 6171 1 3071 7495
M  V30 6172 1 3072 3073
M  V30 6173 1 3072 7496
M  V30 6174 1 3073 3074
M  V30 6175 1 3073 3076
M  V30 6176 1 3073 7497
M  V30 6177 2 3074 3075
M  V30 6178 1 3074 3079
M  V30 6179 1 3076 3077
M  V30 6180 1 3076 3078
M  V30 6181 1 3076 7498
M  V30 6182 1 3077 7499
M  V30 6183 1 3077 7500
M  V30 6184 1 3077 7501
M  V30 6185 1 3078 7502
M  V30 6186 1 3079 3080
M  V30 6187 1 3079 7503
M  V30 6188 1 3080 3081
M  V30 6189 1 3080 3083
M  V30 6190 1 3080 7504
M  V30 6191 2 3081 3082
M  V30 6192 1 3081 3088
M  V30 6193 1 3083 3084
M  V30 6194 1 3083 7505
M  V30 6195 1 3083 7506
M  V30 6196 1 3084 3085
M  V30 6197 1 3084 7507
M  V30 6198 1 3084 7508
M  V30 6199 1 3085 3086
M  V30 6200 1 3085 7509
M  V30 6201 1 3085 7510
M  V30 6202 1 3086 3087
M  V30 6203 1 3086 7511
M  V30 6204 1 3086 7512
M  V30 6205 1 3087 7513
M  V30 6206 1 3087 7514
M  V30 6207 1 3087 7515
M  V30 6208 1 3088 3089
M  V30 6209 1 3088 7516
M  V30 6210 1 3089 3090
M  V30 6211 1 3089 7517
M  V30 6212 1 3089 7518
M  V30 6213 2 3090 3091
M  V30 6214 1 3090 3092
M  V30 6215 1 3092 3093
M  V30 6216 1 3092 7519
M  V30 6217 1 3093 3094
M  V30 6218 1 3093 3096
M  V30 6219 1 3093 7520
M  V30 6220 2 3094 3095
M  V30 6221 1 3094 3099
M  V30 6222 1 3096 3097
M  V30 6223 1 3096 3098
M  V30 6224 1 3096 7521
M  V30 6225 1 3097 7522
M  V30 6226 1 3097 7523
M  V30 6227 1 3097 7524
M  V30 6228 1 3098 7525
M  V30 6229 1 3099 3100
M  V30 6230 1 3099 7526
M  V30 6231 1 3100 3101
M  V30 6232 1 3100 3103
M  V30 6233 1 3100 7527
M  V30 6234 2 3101 3102
M  V30 6235 1 3101 3107
M  V30 6236 1 3103 3104
M  V30 6237 1 3103 7528
M  V30 6238 1 3103 7529
M  V30 6239 1 3104 3105
M  V30 6240 1 3104 3106
M  V30 6241 1 3104 7530
M  V30 6242 1 3105 7531
M  V30 6243 1 3105 7532
M  V30 6244 1 3105 7533
M  V30 6245 1 3106 7534
M  V30 6246 1 3106 7535
M  V30 6247 1 3106 7536
M  V30 6248 1 3107 3108
M  V30 6249 1 3107 7537
M  V30 6250 1 3108 3109
M  V30 6251 1 3108 3111
M  V30 6252 1 3108 7538
M  V30 6253 2 3109 3110
M  V30 6254 1 3109 3116
M  V30 6255 1 3111 3112
M  V30 6256 1 3111 7539
M  V30 6257 1 3111 7540
M  V30 6258 1 3112 3113
M  V30 6259 1 3112 7541
M  V30 6260 1 3112 7542
M  V30 6261 2 3113 3114
M  V30 6262 1 3113 3115
M  V30 6263 1 3116 3117
M  V30 6264 1 3116 3122
M  V30 6265 1 3117 3118
M  V30 6266 1 3117 3120
M  V30 6267 1 3117 7543
M  V30 6268 2 3118 3119
M  V30 6269 1 3118 3123
M  V30 6270 1 3120 3121
M  V30 6271 1 3120 7544
M  V30 6272 1 3120 7545
M  V30 6273 1 3121 3122
M  V30 6274 1 3121 7546
M  V30 6275 1 3121 7547
M  V30 6276 1 3122 7548
M  V30 6277 1 3122 7549
M  V30 6278 1 3123 3124
M  V30 6279 1 3123 7550
M  V30 6280 1 3124 3125
M  V30 6281 1 3124 3127
M  V30 6282 1 3124 7551
M  V30 6283 2 3125 3126
M  V30 6284 1 3125 3132
M  V30 6285 1 3127 3128
M  V30 6286 1 3127 7552
M  V30 6287 1 3127 7553
M  V30 6288 1 3128 3129
M  V30 6289 1 3128 7554
M  V30 6290 1 3128 7555
M  V30 6291 2 3129 3130
M  V30 6292 1 3129 3131
M  V30 6293 1 3132 3133
M  V30 6294 1 3132 7556
M  V30 6295 1 3133 3134
M  V30 6296 1 3133 3136
M  V30 6297 1 3133 7557
M  V30 6298 2 3134 3135
M  V30 6299 1 3134 3144
M  V30 6300 1 3136 3137
M  V30 6301 1 3136 7558
M  V30 6302 1 3136 7559
M  V30 6303 2 3137 3138
M  V30 6304 1 3137 3139
M  V30 6305 1 3138 3140
M  V30 6306 1 3138 7560
M  V30 6307 2 3139 3141
M  V30 6308 1 3139 7561
M  V30 6309 2 3140 3142
M  V30 6310 1 3140 7562
M  V30 6311 1 3141 3142
M  V30 6312 1 3141 7563
M  V30 6313 1 3142 3143
M  V30 6314 1 3143 7564
M  V30 6315 1 3144 3145
M  V30 6316 1 3144 7565
M  V30 6317 1 3145 3146
M  V30 6318 1 3145 3148
M  V30 6319 1 3145 7566
M  V30 6320 2 3146 3147
M  V30 6321 1 3146 3155
M  V30 6322 1 3148 3149
M  V30 6323 1 3148 7567
M  V30 6324 1 3148 7568
M  V30 6325 2 3149 3150
M  V30 6326 1 3149 3151
M  V30 6327 1 3150 3152
M  V30 6328 1 3150 7569
M  V30 6329 2 3151 3153
M  V30 6330 1 3151 7570
M  V30 6331 2 3152 3154
M  V30 6332 1 3152 7571
M  V30 6333 1 3153 3154
M  V30 6334 1 3153 7572
M  V30 6335 1 3154 7573
M  V30 6336 1 3155 3156
M  V30 6337 1 3155 7574
M  V30 6338 1 3156 3157
M  V30 6339 1 3156 3159
M  V30 6340 1 3156 7575
M  V30 6341 2 3157 3158
M  V30 6342 1 3157 3163
M  V30 6343 1 3159 3160
M  V30 6344 1 3159 7576
M  V30 6345 1 3159 7577
M  V30 6346 1 3160 3161
M  V30 6347 2 3160 3162
M  V30 6348 1 3161 7578
M  V30 6349 1 3161 7579
M  V30 6350 1 3163 3164
M  V30 6351 1 3163 7580
M  V30 6352 1 3164 3165
M  V30 6353 1 3164 3167
M  V30 6354 1 3164 7581
M  V30 6355 2 3165 3166
M  V30 6356 1 3165 3169
M  V30 6357 1 3167 3168
M  V30 6358 1 3167 7582
M  V30 6359 1 3167 7583
M  V30 6360 1 3168 7584
M  V30 6361 1 3169 3170
M  V30 6362 1 3169 7585
M  V30 6363 1 3170 3171
M  V30 6364 1 3170 3173
M  V30 6365 1 3170 7586
M  V30 6366 2 3171 3172
M  V30 6367 1 3171 3176
M  V30 6368 1 3173 3174
M  V30 6369 1 3173 3175
M  V30 6370 1 3173 7587
M  V30 6371 1 3174 7588
M  V30 6372 1 3174 7589
M  V30 6373 1 3174 7590
M  V30 6374 1 3175 7591
M  V30 6375 1 3175 7592
M  V30 6376 1 3175 7593
M  V30 6377 1 3176 3177
M  V30 6378 1 3176 7594
M  V30 6379 1 3177 3178
M  V30 6380 1 3177 3180
M  V30 6381 1 3177 7595
M  V30 6382 2 3178 3179
M  V30 6383 1 3178 3182
M  V30 6384 1 3180 3181
M  V30 6385 1 3180 7596
M  V30 6386 1 3180 7597
M  V30 6387 1 3181 7598
M  V30 6388 1 3182 3183
M  V30 6389 1 3182 7599
M  V30 6390 1 3183 3184
M  V30 6391 1 3183 3186
M  V30 6392 1 3183 7600
M  V30 6393 2 3184 3185
M  V30 6394 1 3184 3193
M  V30 6395 1 3186 3187
M  V30 6396 1 3186 7601
M  V30 6397 1 3186 7602
M  V30 6398 1 3187 3188
M  V30 6399 1 3187 7603
M  V30 6400 1 3187 7604
M  V30 6401 1 3188 3189
M  V30 6402 1 3188 7605
M  V30 6403 1 3188 7606
M  V30 6404 1 3189 3190
M  V30 6405 1 3189 7607
M  V30 6406 1 3190 3191
M  V30 6407 2 3190 3192
M  V30 6408 1 3191 7608
M  V30 6409 1 3191 7609
M  V30 6410 1 3192 7610
M  V30 6411 1 3192 7611
M  V30 6412 1 3193 3194
M  V30 6413 1 3193 7612
M  V30 6414 1 3194 3195
M  V30 6415 1 3194 3197
M  V30 6416 1 3194 7613
M  V30 6417 2 3195 3196
M  V30 6418 1 3195 3201
M  V30 6419 1 3197 3198
M  V30 6420 1 3197 7614
M  V30 6421 1 3197 7615
M  V30 6422 1 3198 3199
M  V30 6423 1 3198 3200
M  V30 6424 1 3198 7616
M  V30 6425 1 3199 7617
M  V30 6426 1 3199 7618
M  V30 6427 1 3199 7619
M  V30 6428 1 3200 7620
M  V30 6429 1 3200 7621
M  V30 6430 1 3200 7622
M  V30 6431 1 3201 3202
M  V30 6432 1 3201 7623
M  V30 6433 1 3202 3203
M  V30 6434 1 3202 3205
M  V30 6435 1 3202 7624
M  V30 6436 2 3203 3204
M  V30 6437 1 3203 3209
M  V30 6438 1 3205 3206
M  V30 6439 1 3205 7625
M  V30 6440 1 3205 7626
M  V30 6441 1 3206 3207
M  V30 6442 1 3206 7627
M  V30 6443 1 3206 7628
M  V30 6444 1 3207 3208
M  V30 6445 1 3208 7629
M  V30 6446 1 3208 7630
M  V30 6447 1 3208 7631
M  V30 6448 1 3209 3210
M  V30 6449 1 3209 7632
M  V30 6450 1 3210 3211
M  V30 6451 1 3210 3213
M  V30 6452 1 3210 7633
M  V30 6453 2 3211 3212
M  V30 6454 1 3211 3218
M  V30 6455 1 3213 3214
M  V30 6456 1 3213 7634
M  V30 6457 1 3213 7635
M  V30 6458 1 3214 3215
M  V30 6459 1 3214 7636
M  V30 6460 1 3214 7637
M  V30 6461 1 3215 3216
M  V30 6462 1 3215 7638
M  V30 6463 1 3215 7639
M  V30 6464 1 3216 3217
M  V30 6465 1 3216 7640
M  V30 6466 1 3216 7641
M  V30 6467 1 3217 7642
M  V30 6468 1 3217 7643
M  V30 6469 1 3217 7644
M  V30 6470 1 3218 3219
M  V30 6471 1 3218 7645
M  V30 6472 1 3219 3220
M  V30 6473 1 3219 3222
M  V30 6474 1 3219 7646
M  V30 6475 2 3220 3221
M  V30 6476 1 3220 3225
M  V30 6477 1 3222 3223
M  V30 6478 1 3222 3224
M  V30 6479 1 3222 7647
M  V30 6480 1 3223 7648
M  V30 6481 1 3223 7649
M  V30 6482 1 3223 7650
M  V30 6483 1 3224 7651
M  V30 6484 1 3225 3226
M  V30 6485 1 3225 7652
M  V30 6486 1 3226 3227
M  V30 6487 1 3226 3229
M  V30 6488 1 3226 7653
M  V30 6489 2 3227 3228
M  V30 6490 1 3227 3233
M  V30 6491 1 3229 3230
M  V30 6492 1 3229 3231
M  V30 6493 1 3229 7654
M  V30 6494 1 3230 3232
M  V30 6495 1 3230 7655
M  V30 6496 1 3230 7656
M  V30 6497 1 3231 7657
M  V30 6498 1 3231 7658
M  V30 6499 1 3231 7659
M  V30 6500 1 3232 7660
M  V30 6501 1 3232 7661
M  V30 6502 1 3232 7662
M  V30 6503 1 3233 3234
M  V30 6504 1 3233 7663
M  V30 6505 1 3234 3235
M  V30 6506 1 3234 7664
M  V30 6507 1 3234 7665
M  V30 6508 2 3235 3236
M  V30 6509 1 3235 3237
M  V30 6510 1 3237 3238
M  V30 6511 1 3237 3243
M  V30 6512 1 3238 3239
M  V30 6513 1 3238 3241
M  V30 6514 1 3238 7666
M  V30 6515 2 3239 3240
M  V30 6516 1 3239 3244
M  V30 6517 1 3241 3242
M  V30 6518 1 3241 7667
M  V30 6519 1 3241 7668
M  V30 6520 1 3242 3243
M  V30 6521 1 3242 7669
M  V30 6522 1 3242 7670
M  V30 6523 1 3243 7671
M  V30 6524 1 3243 7672
M  V30 6525 1 3244 3245
M  V30 6526 1 3244 7673
M  V30 6527 1 3245 3246
M  V30 6528 1 3245 3248
M  V30 6529 1 3245 7674
M  V30 6530 2 3246 3247
M  V30 6531 1 3246 3252
M  V30 6532 1 3248 3249
M  V30 6533 1 3248 7675
M  V30 6534 1 3248 7676
M  V30 6535 2 3249 3250
M  V30 6536 1 3249 3251
M  V30 6537 1 3252 3253
M  V30 6538 1 3252 7677
M  V30 6539 1 3253 3254
M  V30 6540 1 3253 3256
M  V30 6541 1 3253 7678
M  V30 6542 2 3254 3255
M  V30 6543 1 3254 3260
M  V30 6544 1 3256 3257
M  V30 6545 1 3256 7679
M  V30 6546 1 3256 7680
M  V30 6547 1 3257 3258
M  V30 6548 1 3257 7681
M  V30 6549 1 3257 7682
M  V30 6550 1 3258 3259
M  V30 6551 1 3259 7683
M  V30 6552 1 3259 7684
M  V30 6553 1 3259 7685
M  V30 6554 1 3260 3261
M  V30 6555 1 3260 7686
M  V30 6556 1 3261 3262
M  V30 6557 1 3261 3264
M  V30 6558 1 3261 7687
M  V30 6559 2 3262 3263
M  V30 6560 1 3262 3271
M  V30 6561 1 3264 3265
M  V30 6562 1 3264 7688
M  V30 6563 1 3264 7689
M  V30 6564 2 3265 3266
M  V30 6565 1 3265 3267
M  V30 6566 1 3266 3268
M  V30 6567 1 3266 7690
M  V30 6568 2 3267 3269
M  V30 6569 1 3267 7691
M  V30 6570 2 3268 3270
M  V30 6571 1 3268 7692
M  V30 6572 1 3269 3270
M  V30 6573 1 3269 7693
M  V30 6574 1 3270 7694
M  V30 6575 1 3271 3272
M  V30 6576 1 3271 7695
M  V30 6577 1 3272 3273
M  V30 6578 1 3272 3275
M  V30 6579 1 3272 7696
M  V30 6580 2 3273 3274
M  V30 6581 1 3273 3279
M  V30 6582 1 3275 3276
M  V30 6583 1 3275 7697
M  V30 6584 1 3275 7698
M  V30 6585 1 3276 3277
M  V30 6586 1 3276 3278
M  V30 6587 1 3276 7699
M  V30 6588 1 3277 7700
M  V30 6589 1 3277 7701
M  V30 6590 1 3277 7702
M  V30 6591 1 3278 7703
M  V30 6592 1 3278 7704
M  V30 6593 1 3278 7705
M  V30 6594 1 3279 3280
M  V30 6595 1 3279 7706
M  V30 6596 1 3280 3281
M  V30 6597 1 3280 7707
M  V30 6598 1 3280 7708
M  V30 6599 2 3281 3282
M  V30 6600 1 3281 3283
M  V30 6601 1 3283 3284
M  V30 6602 1 3283 7709
M  V30 6603 1 3284 3285
M  V30 6604 1 3284 3287
M  V30 6605 1 3284 7710
M  V30 6606 2 3285 3286
M  V30 6607 1 3285 3290
M  V30 6608 1 3287 3288
M  V30 6609 1 3287 3289
M  V30 6610 1 3287 7711
M  V30 6611 1 3288 7712
M  V30 6612 1 3288 7713
M  V30 6613 1 3288 7714
M  V30 6614 1 3289 7715
M  V30 6615 1 3290 3291
M  V30 6616 1 3290 7716
M  V30 6617 1 3291 3292
M  V30 6618 1 3291 3294
M  V30 6619 1 3291 7717
M  V30 6620 2 3292 3293
M  V30 6621 1 3292 3296
M  V30 6622 1 3294 3295
M  V30 6623 1 3294 7718
M  V30 6624 1 3294 7719
M  V30 6625 1 3296 3297
M  V30 6626 1 3296 7720
M  V30 6627 1 3297 3298
M  V30 6628 1 3297 3300
M  V30 6629 1 3297 7721
M  V30 6630 2 3298 3299
M  V30 6631 1 3298 3307
M  V30 6632 1 3300 3301
M  V30 6633 1 3300 7722
M  V30 6634 1 3300 7723
M  V30 6635 1 3301 3302
M  V30 6636 1 3301 7724
M  V30 6637 1 3301 7725
M  V30 6638 1 3302 3303
M  V30 6639 1 3302 7726
M  V30 6640 1 3302 7727
M  V30 6641 1 3303 3304
M  V30 6642 1 3303 7728
M  V30 6643 1 3304 3305
M  V30 6644 2 3304 3306
M  V30 6645 1 3305 7729
M  V30 6646 1 3305 7730
M  V30 6647 1 3306 7731
M  V30 6648 1 3306 7732
M  V30 6649 1 3307 3308
M  V30 6650 1 3307 7733
M  V30 6651 1 3308 3309
M  V30 6652 1 3308 3311
M  V30 6653 1 3308 7734
M  V30 6654 2 3309 3310
M  V30 6655 1 3309 3318
M  V30 6656 1 3311 3312
M  V30 6657 1 3311 7735
M  V30 6658 1 3311 7736
M  V30 6659 1 3312 3313
M  V30 6660 1 3312 7737
M  V30 6661 1 3312 7738
M  V30 6662 1 3313 3314
M  V30 6663 1 3313 7739
M  V30 6664 1 3313 7740
M  V30 6665 1 3314 3315
M  V30 6666 1 3314 7741
M  V30 6667 1 3315 3316
M  V30 6668 2 3315 3317
M  V30 6669 1 3316 7742
M  V30 6670 1 3316 7743
M  V30 6671 1 3317 7744
M  V30 6672 1 3317 7745
M  V30 6673 1 3318 3319
M  V30 6674 1 3318 7746
M  V30 6675 1 3319 3320
M  V30 6676 1 3319 3322
M  V30 6677 1 3319 7747
M  V30 6678 2 3320 3321
M  V30 6679 1 3320 3324
M  V30 6680 1 3322 3323
M  V30 6681 1 3322 7748
M  V30 6682 1 3322 7749
M  V30 6683 1 3323 7750
M  V30 6684 1 3324 3325
M  V30 6685 1 3324 3330
M  V30 6686 1 3325 3326
M  V30 6687 1 3325 3328
M  V30 6688 1 3325 7751
M  V30 6689 2 3326 3327
M  V30 6690 1 3326 3331
M  V30 6691 1 3328 3329
M  V30 6692 1 3328 7752
M  V30 6693 1 3328 7753
M  V30 6694 1 3329 3330
M  V30 6695 1 3329 7754
M  V30 6696 1 3329 7755
M  V30 6697 1 3330 7756
M  V30 6698 1 3330 7757
M  V30 6699 1 3331 3332
M  V30 6700 1 3331 7758
M  V30 6701 1 3332 3333
M  V30 6702 1 3332 3335
M  V30 6703 1 3332 7759
M  V30 6704 2 3333 3334
M  V30 6705 1 3333 3336
M  V30 6706 1 3335 7760
M  V30 6707 1 3335 7761
M  V30 6708 1 3335 7762
M  V30 6709 1 3336 3337
M  V30 6710 1 3336 7763
M  V30 6711 1 3337 3338
M  V30 6712 1 3337 3340
M  V30 6713 1 3337 7764
M  V30 6714 2 3338 3339
M  V30 6715 1 3338 3345
M  V30 6716 1 3340 3341
M  V30 6717 1 3340 7765
M  V30 6718 1 3340 7766
M  V30 6719 1 3341 3342
M  V30 6720 1 3341 7767
M  V30 6721 1 3341 7768
M  V30 6722 2 3342 3343
M  V30 6723 1 3342 3344
M  V30 6724 1 3345 3346
M  V30 6725 1 3345 7769
M  V30 6726 1 3346 3347
M  V30 6727 1 3346 3349
M  V30 6728 1 3346 7770
M  V30 6729 2 3347 3348
M  V30 6730 1 3347 3353
M  V30 6731 1 3349 3350
M  V30 6732 1 3349 3351
M  V30 6733 1 3349 7771
M  V30 6734 1 3350 3352
M  V30 6735 1 3350 7772
M  V30 6736 1 3350 7773
M  V30 6737 1 3351 7774
M  V30 6738 1 3351 7775
M  V30 6739 1 3351 7776
M  V30 6740 1 3352 7777
M  V30 6741 1 3352 7778
M  V30 6742 1 3352 7779
M  V30 6743 1 3353 3354
M  V30 6744 1 3353 7780
M  V30 6745 1 3354 3355
M  V30 6746 1 3354 3357
M  V30 6747 1 3354 7781
M  V30 6748 2 3355 3356
M  V30 6749 1 3355 3360
M  V30 6750 1 3357 3358
M  V30 6751 1 3357 3359
M  V30 6752 1 3357 7782
M  V30 6753 1 3358 7783
M  V30 6754 1 3358 7784
M  V30 6755 1 3358 7785
M  V30 6756 1 3359 7786
M  V30 6757 1 3359 7787
M  V30 6758 1 3359 7788
M  V30 6759 1 3360 3361
M  V30 6760 1 3360 7789
M  V30 6761 1 3361 3362
M  V30 6762 1 3361 3364
M  V30 6763 1 3361 7790
M  V30 6764 2 3362 3363
M  V30 6765 1 3362 3368
M  V30 6766 1 3364 3365
M  V30 6767 1 3364 7791
M  V30 6768 1 3364 7792
M  V30 6769 2 3365 3366
M  V30 6770 1 3365 3367
M  V30 6771 1 3368 3369
M  V30 6772 1 3368 7793
M  V30 6773 1 3369 3370
M  V30 6774 1 3369 3372
M  V30 6775 1 3369 7794
M  V30 6776 2 3370 3371
M  V30 6777 1 3370 3375
M  V30 6778 1 3372 3373
M  V30 6779 1 3372 3374
M  V30 6780 1 3372 7795
M  V30 6781 1 3373 7796
M  V30 6782 1 3373 7797
M  V30 6783 1 3373 7798
M  V30 6784 1 3374 7799
M  V30 6785 1 3375 3376
M  V30 6786 1 3375 7800
M  V30 6787 1 3376 3377
M  V30 6788 1 3376 3379
M  V30 6789 1 3376 7801
M  V30 6790 2 3377 3378
M  V30 6791 1 3377 3382
M  V30 6792 1 3379 3380
M  V30 6793 1 3379 3381
M  V30 6794 1 3379 7802
M  V30 6795 1 3380 7803
M  V30 6796 1 3380 7804
M  V30 6797 1 3380 7805
M  V30 6798 1 3381 7806
M  V30 6799 1 3381 7807
M  V30 6800 1 3381 7808
M  V30 6801 1 3382 3383
M  V30 6802 1 3382 7809
M  V30 6803 1 3383 3384
M  V30 6804 1 3383 3386
M  V30 6805 1 3383 7810
M  V30 6806 2 3384 3385
M  V30 6807 1 3384 3388
M  V30 6808 1 3386 3387
M  V30 6809 1 3386 7811
M  V30 6810 1 3386 7812
M  V30 6811 1 3387 7813
M  V30 6812 1 3388 3389
M  V30 6813 1 3388 7814
M  V30 6814 1 3389 3390
M  V30 6815 1 3389 3392
M  V30 6816 1 3389 7815
M  V30 6817 2 3390 3391
M  V30 6818 1 3390 3393
M  V30 6819 1 3392 7816
M  V30 6820 1 3392 7817
M  V30 6821 1 3392 7818
M  V30 6822 1 3393 3394
M  V30 6823 1 3393 7819
M  V30 6824 1 3394 3395
M  V30 6825 1 3394 3397
M  V30 6826 1 3394 7820
M  V30 6827 2 3395 3396
M  V30 6828 1 3395 3401
M  V30 6829 1 3397 3398
M  V30 6830 1 3397 7821
M  V30 6831 1 3397 7822
M  V30 6832 1 3398 3399
M  V30 6833 1 3398 3400
M  V30 6834 1 3398 7823
M  V30 6835 1 3399 7824
M  V30 6836 1 3399 7825
M  V30 6837 1 3399 7826
M  V30 6838 1 3400 7827
M  V30 6839 1 3400 7828
M  V30 6840 1 3400 7829
M  V30 6841 1 3401 3402
M  V30 6842 1 3401 7830
M  V30 6843 1 3402 3403
M  V30 6844 1 3402 3405
M  V30 6845 1 3402 7831
M  V30 6846 2 3403 3404
M  V30 6847 1 3403 3408
M  V30 6848 1 3405 3406
M  V30 6849 1 3405 3407
M  V30 6850 1 3405 7832
M  V30 6851 1 3406 7833
M  V30 6852 1 3406 7834
M  V30 6853 1 3406 7835
M  V30 6854 1 3407 7836
M  V30 6855 1 3407 7837
M  V30 6856 1 3407 7838
M  V30 6857 1 3408 3409
M  V30 6858 1 3408 7839
M  V30 6859 1 3409 3410
M  V30 6860 1 3409 3412
M  V30 6861 1 3409 7840
M  V30 6862 2 3410 3411
M  V30 6863 1 3410 3420
M  V30 6864 1 3412 3413
M  V30 6865 1 3412 7841
M  V30 6866 1 3412 7842
M  V30 6867 2 3413 3414
M  V30 6868 1 3413 3415
M  V30 6869 1 3414 3416
M  V30 6870 1 3414 7843
M  V30 6871 2 3415 3417
M  V30 6872 1 3415 7844
M  V30 6873 2 3416 3418
M  V30 6874 1 3416 7845
M  V30 6875 1 3417 3418
M  V30 6876 1 3417 7846
M  V30 6877 1 3418 3419
M  V30 6878 1 3419 7847
M  V30 6879 1 3420 3421
M  V30 6880 1 3420 7848
M  V30 6881 1 3421 3422
M  V30 6882 1 3421 3424
M  V30 6883 1 3421 7849
M  V30 6884 2 3422 3423
M  V30 6885 1 3422 3428
M  V30 6886 1 3424 3425
M  V30 6887 1 3424 7850
M  V30 6888 1 3424 7851
M  V30 6889 2 3425 3426
M  V30 6890 1 3425 3427
M  V30 6891 1 3428 3429
M  V30 6892 1 3428 7852
M  V30 6893 1 3429 3430
M  V30 6894 1 3429 3432
M  V30 6895 1 3429 7853
M  V30 6896 2 3430 3431
M  V30 6897 1 3430 3436
M  V30 6898 1 3432 3433
M  V30 6899 1 3432 7854
M  V30 6900 1 3432 7855
M  V30 6901 1 3433 3434
M  V30 6902 2 3433 3435
M  V30 6903 1 3434 7856
M  V30 6904 1 3434 7857
M  V30 6905 1 3436 3437
M  V30 6906 1 3436 7858
M  V30 6907 1 3437 3438
M  V30 6908 1 3437 3440
M  V30 6909 1 3437 7859
M  V30 6910 2 3438 3439
M  V30 6911 1 3438 3445
M  V30 6912 1 3440 3441
M  V30 6913 1 3440 7860
M  V30 6914 1 3440 7861
M  V30 6915 1 3441 3442
M  V30 6916 1 3441 7862
M  V30 6917 1 3441 7863
M  V30 6918 1 3442 3443
M  V30 6919 1 3442 7864
M  V30 6920 1 3442 7865
M  V30 6921 1 3443 3444
M  V30 6922 1 3443 7866
M  V30 6923 1 3443 7867
M  V30 6924 1 3444 7868
M  V30 6925 1 3444 7869
M  V30 6926 1 3444 7870
M  V30 6927 1 3445 3446
M  V30 6928 1 3445 7871
M  V30 6929 1 3446 3447
M  V30 6930 1 3446 3449
M  V30 6931 1 3446 7872
M  V30 6932 2 3447 3448
M  V30 6933 1 3447 3453
M  V30 6934 1 3449 3450
M  V30 6935 1 3449 7873
M  V30 6936 1 3449 7874
M  V30 6937 1 3450 3451
M  V30 6938 1 3450 3452
M  V30 6939 1 3450 7875
M  V30 6940 1 3451 7876
M  V30 6941 1 3451 7877
M  V30 6942 1 3451 7878
M  V30 6943 1 3452 7879
M  V30 6944 1 3452 7880
M  V30 6945 1 3452 7881
M  V30 6946 1 3453 3454
M  V30 6947 1 3453 7882
M  V30 6948 1 3454 3455
M  V30 6949 1 3454 3457
M  V30 6950 1 3454 7883
M  V30 6951 2 3455 3456
M  V30 6952 1 3455 3462
M  V30 6953 1 3457 3458
M  V30 6954 1 3457 7884
M  V30 6955 1 3457 7885
M  V30 6956 1 3458 3459
M  V30 6957 1 3458 7886
M  V30 6958 1 3458 7887
M  V30 6959 1 3459 3460
M  V30 6960 1 3459 7888
M  V30 6961 1 3459 7889
M  V30 6962 1 3460 3461
M  V30 6963 1 3460 7890
M  V30 6964 1 3460 7891
M  V30 6965 1 3461 7892
M  V30 6966 1 3461 7893
M  V30 6967 1 3461 7894
M  V30 6968 1 3462 3463
M  V30 6969 1 3462 7895
M  V30 6970 1 3463 3464
M  V30 6971 1 3463 3466
M  V30 6972 1 3463 7896
M  V30 6973 2 3464 3465
M  V30 6974 1 3464 3467
M  V30 6975 1 3466 7897
M  V30 6976 1 3466 7898
M  V30 6977 1 3466 7899
M  V30 6978 1 3467 3468
M  V30 6979 1 3467 7900
M  V30 6980 1 3468 3469
M  V30 6981 1 3468 3471
M  V30 6982 1 3468 7901
M  V30 6983 2 3469 3470
M  V30 6984 1 3469 3477
M  V30 6985 1 3471 3472
M  V30 6986 1 3471 7902
M  V30 6987 1 3471 7903
M  V30 6988 2 3472 3473
M  V30 6989 1 3472 3474
M  V30 6990 1 3473 3476
M  V30 6991 1 3473 7904
M  V30 6992 2 3474 3475
M  V30 6993 1 3475 3476
M  V30 6994 1 3475 7905
M  V30 6995 1 3476 9118
M  V30 6996 1 3477 3478
M  V30 6997 1 3477 7906
M  V30 6998 1 3478 3479
M  V30 6999 1 3478 3481
M  V30 7000 1 3478 7907
M  V30 7001 2 3479 3480
M  V30 7002 1 3479 3486
M  V30 7003 1 3481 3482
M  V30 7004 1 3481 7908
M  V30 7005 1 3481 7909
M  V30 7006 1 3482 3483
M  V30 7007 1 3482 7910
M  V30 7008 1 3482 7911
M  V30 7009 1 3483 3484
M  V30 7010 1 3483 7912
M  V30 7011 1 3483 7913
M  V30 7012 1 3484 3485
M  V30 7013 1 3484 7914
M  V30 7014 1 3484 7915
M  V30 7015 1 3485 7916
M  V30 7016 1 3485 7917
M  V30 7017 1 3485 7918
M  V30 7018 1 3486 3487
M  V30 7019 1 3486 7919
M  V30 7020 1 3487 3488
M  V30 7021 1 3487 3490
M  V30 7022 1 3487 7920
M  V30 7023 2 3488 3489
M  V30 7024 1 3488 3494
M  V30 7025 1 3490 3491
M  V30 7026 1 3490 7921
M  V30 7027 1 3490 7922
M  V30 7028 2 3491 3492
M  V30 7029 1 3491 3493
M  V30 7030 1 3494 3495
M  V30 7031 1 3494 7923
M  V30 7032 1 3495 3496
M  V30 7033 1 3495 3498
M  V30 7034 1 3495 7924
M  V30 7035 2 3496 3497
M  V30 7036 1 3496 3503
M  V30 7037 1 3498 3499
M  V30 7038 1 3498 7925
M  V30 7039 1 3498 7926
M  V30 7040 1 3499 3500
M  V30 7041 1 3499 7927
M  V30 7042 1 3499 7928
M  V30 7043 1 3500 3501
M  V30 7044 1 3500 7929
M  V30 7045 1 3500 7930
M  V30 7046 1 3501 3502
M  V30 7047 1 3501 7931
M  V30 7048 1 3501 7932
M  V30 7049 1 3502 7933
M  V30 7050 1 3502 7934
M  V30 7051 1 3502 7935
M  V30 7052 1 3503 3504
M  V30 7053 1 3503 7936
M  V30 7054 1 3504 3505
M  V30 7055 1 3504 3507
M  V30 7056 1 3504 7937
M  V30 7057 2 3505 3506
M  V30 7058 1 3505 3509
M  V30 7059 1 3507 3508
M  V30 7060 1 3507 7938
M  V30 7061 1 3507 7939
M  V30 7062 1 3508 7940
M  V30 7063 1 3509 3510
M  V30 7064 1 3509 7941
M  V30 7065 1 3510 3511
M  V30 7066 1 3510 3513
M  V30 7067 1 3510 7942
M  V30 7068 2 3511 3512
M  V30 7069 1 3511 3514
M  V30 7070 1 3513 7943
M  V30 7071 1 3513 7944
M  V30 7072 1 3513 7945
M  V30 7073 1 3514 3515
M  V30 7074 1 3514 7946
M  V30 7075 1 3515 3516
M  V30 7076 1 3515 3518
M  V30 7077 1 3515 7947
M  V30 7078 2 3516 3517
M  V30 7079 1 3516 3523
M  V30 7080 1 3518 3519
M  V30 7081 1 3518 7948
M  V30 7082 1 3518 7949
M  V30 7083 1 3519 3520
M  V30 7084 1 3519 7950
M  V30 7085 1 3519 7951
M  V30 7086 1 3520 3521
M  V30 7087 2 3520 3522
M  V30 7088 1 3521 7952
M  V30 7089 1 3521 7953
M  V30 7090 1 3523 3524
M  V30 7091 1 3523 7954
M  V30 7092 1 3524 3525
M  V30 7093 1 3524 3527
M  V30 7094 1 3524 7955
M  V30 7095 2 3525 3526
M  V30 7096 1 3525 3529
M  V30 7097 1 3527 3528
M  V30 7098 1 3527 7956
M  V30 7099 1 3527 7957
M  V30 7100 1 3528 7958
M  V30 7101 1 3529 3530
M  V30 7102 1 3529 7959
M  V30 7103 1 3530 3531
M  V30 7104 1 3530 3533
M  V30 7105 1 3530 7960
M  V30 7106 2 3531 3532
M  V30 7107 1 3531 3540
M  V30 7108 1 3533 3534
M  V30 7109 1 3533 7961
M  V30 7110 1 3533 7962
M  V30 7111 2 3534 3535
M  V30 7112 1 3534 3536
M  V30 7113 1 3535 3537
M  V30 7114 1 3535 7963
M  V30 7115 2 3536 3538
M  V30 7116 1 3536 7964
M  V30 7117 2 3537 3539
M  V30 7118 1 3537 7965
M  V30 7119 1 3538 3539
M  V30 7120 1 3538 7966
M  V30 7121 1 3539 7967
M  V30 7122 1 3540 3541
M  V30 7123 1 3540 7968
M  V30 7124 1 3541 3542
M  V30 7125 1 3541 3544
M  V30 7126 1 3541 7969
M  V30 7127 2 3542 3543
M  V30 7128 1 3542 3549
M  V30 7129 1 3544 3545
M  V30 7130 1 3544 7970
M  V30 7131 1 3544 7971
M  V30 7132 1 3545 3546
M  V30 7133 1 3545 7972
M  V30 7134 1 3545 7973
M  V30 7135 1 3546 3547
M  V30 7136 1 3546 7974
M  V30 7137 1 3546 7975
M  V30 7138 1 3547 3548
M  V30 7139 1 3547 7976
M  V30 7140 1 3547 7977
M  V30 7141 1 3548 7978
M  V30 7142 1 3548 7979
M  V30 7143 1 3548 7980
M  V30 7144 1 3549 3550
M  V30 7145 1 3549 7981
M  V30 7146 1 3550 3551
M  V30 7147 1 3550 3553
M  V30 7148 1 3550 7982
M  V30 7149 2 3551 3552
M  V30 7150 1 3551 3557
M  V30 7151 1 3553 3554
M  V30 7152 1 3553 7983
M  V30 7153 1 3553 7984
M  V30 7154 1 3554 3555
M  V30 7155 1 3554 7985
M  V30 7156 1 3554 7986
M  V30 7157 1 3555 3556
M  V30 7158 1 3556 7987
M  V30 7159 1 3556 7988
M  V30 7160 1 3556 7989
M  V30 7161 1 3557 3558
M  V30 7162 1 3557 7990
M  V30 7163 1 3558 3559
M  V30 7164 1 3558 3561
M  V30 7165 1 3558 7991
M  V30 7166 2 3559 3560
M  V30 7167 1 3559 3568
M  V30 7168 1 3561 3562
M  V30 7169 1 3561 7992
M  V30 7170 1 3561 7993
M  V30 7171 2 3562 3563
M  V30 7172 1 3562 3564
M  V30 7173 1 3563 3565
M  V30 7174 1 3563 7994
M  V30 7175 2 3564 3566
M  V30 7176 1 3564 7995
M  V30 7177 2 3565 3567
M  V30 7178 1 3565 7996
M  V30 7179 1 3566 3567
M  V30 7180 1 3566 7997
M  V30 7181 1 3567 7998
M  V30 7182 1 3568 3569
M  V30 7183 1 3568 7999
M  V30 7184 1 3569 3570
M  V30 7185 1 3569 3572
M  V30 7186 1 3569 8000
M  V30 7187 2 3570 3571
M  V30 7188 1 3570 3580
M  V30 7189 1 3572 3573
M  V30 7190 1 3572 8001
M  V30 7191 1 3572 8002
M  V30 7192 2 3573 3574
M  V30 7193 1 3573 3575
M  V30 7194 1 3574 3576
M  V30 7195 1 3574 8003
M  V30 7196 2 3575 3577
M  V30 7197 1 3575 8004
M  V30 7198 2 3576 3578
M  V30 7199 1 3576 8005
M  V30 7200 1 3577 3578
M  V30 7201 1 3577 8006
M  V30 7202 1 3578 3579
M  V30 7203 1 3579 8007
M  V30 7204 1 3580 3581
M  V30 7205 1 3580 8008
M  V30 7206 1 3581 3582
M  V30 7207 1 3581 3584
M  V30 7208 1 3581 8009
M  V30 7209 2 3582 3583
M  V30 7210 1 3582 3589
M  V30 7211 1 3584 3585
M  V30 7212 1 3584 8010
M  V30 7213 1 3584 8011
M  V30 7214 1 3585 3586
M  V30 7215 1 3585 8012
M  V30 7216 1 3585 8013
M  V30 7217 1 3586 3587
M  V30 7218 1 3586 8014
M  V30 7219 1 3586 8015
M  V30 7220 1 3587 3588
M  V30 7221 1 3587 8016
M  V30 7222 1 3587 8017
M  V30 7223 1 3588 8018
M  V30 7224 1 3588 8019
M  V30 7225 1 3588 8020
M  V30 7226 1 3589 3590
M  V30 7227 1 3589 8021
M  V30 7228 1 3590 3591
M  V30 7229 1 3590 8022
M  V30 7230 1 3590 8023
M  V30 7231 2 3591 3592
M  V30 7232 1 3591 3593
M  V30 7233 1 3593 3594
M  V30 7234 1 3593 8024
M  V30 7235 1 3594 3595
M  V30 7236 1 3594 3597
M  V30 7237 1 3594 8025
M  V30 7238 2 3595 3596
M  V30 7239 1 3595 3600
M  V30 7240 1 3597 3598
M  V30 7241 1 3597 3599
M  V30 7242 1 3597 8026
M  V30 7243 1 3598 8027
M  V30 7244 1 3598 8028
M  V30 7245 1 3598 8029
M  V30 7246 1 3599 8030
M  V30 7247 1 3599 8031
M  V30 7248 1 3599 8032
M  V30 7249 1 3600 3601
M  V30 7250 1 3600 8033
M  V30 7251 1 3601 3602
M  V30 7252 1 3601 3604
M  V30 7253 1 3601 8034
M  V30 7254 2 3602 3603
M  V30 7255 1 3602 3608
M  V30 7256 1 3604 3605
M  V30 7257 1 3604 3606
M  V30 7258 1 3604 8035
M  V30 7259 1 3605 3607
M  V30 7260 1 3605 8036
M  V30 7261 1 3605 8037
M  V30 7262 1 3606 8038
M  V30 7263 1 3606 8039
M  V30 7264 1 3606 8040
M  V30 7265 1 3607 8041
M  V30 7266 1 3607 8042
M  V30 7267 1 3607 8043
M  V30 7268 1 3608 3609
M  V30 7269 1 3608 8044
M  V30 7270 1 3609 3610
M  V30 7271 1 3609 3612
M  V30 7272 1 3609 8045
M  V30 7273 2 3610 3611
M  V30 7274 1 3610 3615
M  V30 7275 1 3612 3613
M  V30 7276 1 3612 3614
M  V30 7277 1 3612 8046
M  V30 7278 1 3613 8047
M  V30 7279 1 3613 8048
M  V30 7280 1 3613 8049
M  V30 7281 1 3614 8050
M  V30 7282 1 3615 3616
M  V30 7283 1 3615 8051
M  V30 7284 1 3616 3617
M  V30 7285 1 3616 3619
M  V30 7286 1 3616 8052
M  V30 7287 2 3617 3618
M  V30 7288 1 3617 3625
M  V30 7289 1 3619 3620
M  V30 7290 1 3619 8053
M  V30 7291 1 3619 8054
M  V30 7292 2 3620 3621
M  V30 7293 1 3620 3622
M  V30 7294 1 3621 3624
M  V30 7295 1 3621 8055
M  V30 7296 1 3622 3623
M  V30 7297 1 3622 8056
M  V30 7298 2 3623 3624
M  V30 7299 1 3623 8057
M  V30 7300 1 3625 3626
M  V30 7301 1 3625 8058
M  V30 7302 1 3626 3627
M  V30 7303 1 3626 3629
M  V30 7304 1 3626 8059
M  V30 7305 2 3627 3628
M  V30 7306 1 3627 3633
M  V30 7307 1 3629 3630
M  V30 7308 1 3629 8060
M  V30 7309 1 3629 8061
M  V30 7310 2 3630 3631
M  V30 7311 1 3630 3632
M  V30 7312 1 3633 3634
M  V30 7313 1 3633 8062
M  V30 7314 1 3634 3635
M  V30 7315 1 3634 3637
M  V30 7316 1 3634 8063
M  V30 7317 2 3635 3636
M  V30 7318 1 3635 3640
M  V30 7319 1 3637 3638
M  V30 7320 1 3637 3639
M  V30 7321 1 3637 8064
M  V30 7322 1 3638 8065
M  V30 7323 1 3638 8066
M  V30 7324 1 3638 8067
M  V30 7325 1 3639 8068
M  V30 7326 1 3639 8069
M  V30 7327 1 3639 8070
M  V30 7328 1 3640 3641
M  V30 7329 1 3640 8071
M  V30 7330 1 3641 3642
M  V30 7331 1 3641 3644
M  V30 7332 1 3641 8072
M  V30 7333 2 3642 3643
M  V30 7334 1 3642 3646
M  V30 7335 1 3644 3645
M  V30 7336 1 3644 8073
M  V30 7337 1 3644 8074
M  V30 7338 1 3645 8075
M  V30 7339 1 3646 3647
M  V30 7340 1 3646 8076
M  V30 7341 1 3647 3648
M  V30 7342 1 3647 3650
M  V30 7343 1 3647 8077
M  V30 7344 2 3648 3649
M  V30 7345 1 3648 3652
M  V30 7346 1 3650 3651
M  V30 7347 1 3650 8078
M  V30 7348 1 3650 8079
M  V30 7349 1 3651 8080
M  V30 7350 1 3652 3653
M  V30 7351 1 3652 8081
M  V30 7352 1 3653 3654
M  V30 7353 1 3653 3656
M  V30 7354 1 3653 8082
M  V30 7355 2 3654 3655
M  V30 7356 1 3654 3657
M  V30 7357 1 3656 8083
M  V30 7358 1 3656 8084
M  V30 7359 1 3656 8085
M  V30 7360 1 3657 3658
M  V30 7361 1 3657 8086
M  V30 7362 1 3658 3659
M  V30 7363 1 3658 3661
M  V30 7364 1 3658 8087
M  V30 7365 2 3659 3660
M  V30 7366 1 3659 3665
M  V30 7367 1 3661 3662
M  V30 7368 1 3661 3663
M  V30 7369 1 3661 8088
M  V30 7370 1 3662 3664
M  V30 7371 1 3662 8089
M  V30 7372 1 3662 8090
M  V30 7373 1 3663 8091
M  V30 7374 1 3663 8092
M  V30 7375 1 3663 8093
M  V30 7376 1 3664 8094
M  V30 7377 1 3664 8095
M  V30 7378 1 3664 8096
M  V30 7379 1 3665 3666
M  V30 7380 1 3665 8097
M  V30 7381 1 3666 3667
M  V30 7382 1 3666 3669
M  V30 7383 1 3666 8098
M  V30 7384 2 3667 3668
M  V30 7385 1 3667 3673
M  V30 7386 1 3669 3670
M  V30 7387 1 3669 8099
M  V30 7388 1 3669 8100
M  V30 7389 1 3670 3671
M  V30 7390 2 3670 3672
M  V30 7391 1 3671 8101
M  V30 7392 1 3671 8102
M  V30 7393 1 3673 3674
M  V30 7394 1 3673 8103
M  V30 7395 1 3674 3675
M  V30 7396 1 3674 3677
M  V30 7397 1 3674 8104
M  V30 7398 2 3675 3676
M  V30 7399 1 3675 3684
M  V30 7400 1 3677 3678
M  V30 7401 1 3677 8105
M  V30 7402 1 3677 8106
M  V30 7403 1 3678 3679
M  V30 7404 1 3678 8107
M  V30 7405 1 3678 8108
M  V30 7406 1 3679 3680
M  V30 7407 1 3679 8109
M  V30 7408 1 3679 8110
M  V30 7409 1 3680 3681
M  V30 7410 1 3680 8111
M  V30 7411 1 3681 3682
M  V30 7412 2 3681 3683
M  V30 7413 1 3682 8112
M  V30 7414 1 3682 8113
M  V30 7415 1 3683 8114
M  V30 7416 1 3683 8115
M  V30 7417 1 3684 3685
M  V30 7418 1 3684 3690
M  V30 7419 1 3685 3686
M  V30 7420 1 3685 3688
M  V30 7421 1 3685 8116
M  V30 7422 2 3686 3687
M  V30 7423 1 3686 3691
M  V30 7424 1 3688 3689
M  V30 7425 1 3688 8117
M  V30 7426 1 3688 8118
M  V30 7427 1 3689 3690
M  V30 7428 1 3689 8119
M  V30 7429 1 3689 8120
M  V30 7430 1 3690 8121
M  V30 7431 1 3690 8122
M  V30 7432 1 3691 3692
M  V30 7433 1 3691 8123
M  V30 7434 1 3692 3693
M  V30 7435 1 3692 3695
M  V30 7436 1 3692 8124
M  V30 7437 2 3693 3694
M  V30 7438 1 3693 3700
M  V30 7439 1 3695 3696
M  V30 7440 1 3695 8125
M  V30 7441 1 3695 8126
M  V30 7442 1 3696 3697
M  V30 7443 1 3696 8127
M  V30 7444 1 3696 8128
M  V30 7445 1 3697 3698
M  V30 7446 2 3697 3699
M  V30 7447 1 3698 8129
M  V30 7448 1 3698 8130
M  V30 7449 1 3700 3701
M  V30 7450 1 3700 8131
M  V30 7451 1 3701 3702
M  V30 7452 1 3701 3704
M  V30 7453 1 3701 8132
M  V30 7454 2 3702 3703
M  V30 7455 1 3702 3708
M  V30 7456 1 3704 3705
M  V30 7457 1 3704 3706
M  V30 7458 1 3704 8133
M  V30 7459 1 3705 3707
M  V30 7460 1 3705 8134
M  V30 7461 1 3705 8135
M  V30 7462 1 3706 8136
M  V30 7463 1 3706 8137
M  V30 7464 1 3706 8138
M  V30 7465 1 3707 8139
M  V30 7466 1 3707 8140
M  V30 7467 1 3707 8141
M  V30 7468 1 3708 3709
M  V30 7469 1 3708 8142
M  V30 7470 1 3709 3710
M  V30 7471 1 3709 8143
M  V30 7472 1 3709 8144
M  V30 7473 2 3710 3711
M  V30 7474 1 3710 3712
M  V30 7475 1 3712 3713
M  V30 7476 1 3712 8145
M  V30 7477 1 3713 3714
M  V30 7478 1 3713 3716
M  V30 7479 1 3713 8146
M  V30 7480 2 3714 3715
M  V30 7481 1 3714 3719
M  V30 7482 1 3716 3717
M  V30 7483 1 3716 3718
M  V30 7484 1 3716 8147
M  V30 7485 1 3717 8148
M  V30 7486 1 3717 8149
M  V30 7487 1 3717 8150
M  V30 7488 1 3718 8151
M  V30 7489 1 3718 8152
M  V30 7490 1 3718 8153
M  V30 7491 1 3719 3720
M  V30 7492 1 3719 8154
M  V30 7493 1 3720 3721
M  V30 7494 1 3720 3723
M  V30 7495 1 3720 8155
M  V30 7496 2 3721 3722
M  V30 7497 1 3721 3726
M  V30 7498 1 3723 3724
M  V30 7499 1 3723 3725
M  V30 7500 1 3723 8156
M  V30 7501 1 3724 8157
M  V30 7502 1 3724 8158
M  V30 7503 1 3724 8159
M  V30 7504 1 3725 8160
M  V30 7505 1 3725 8161
M  V30 7506 1 3725 8162
M  V30 7507 1 3726 3727
M  V30 7508 1 3726 8163
M  V30 7509 1 3727 3728
M  V30 7510 1 3727 3730
M  V30 7511 1 3727 8164
M  V30 7512 2 3728 3729
M  V30 7513 1 3728 3737
M  V30 7514 1 3730 3731
M  V30 7515 1 3730 8165
M  V30 7516 1 3730 8166
M  V30 7517 1 3731 3732
M  V30 7518 1 3731 8167
M  V30 7519 1 3731 8168
M  V30 7520 1 3732 3733
M  V30 7521 1 3732 8169
M  V30 7522 1 3732 8170
M  V30 7523 1 3733 3734
M  V30 7524 1 3733 8171
M  V30 7525 1 3734 3735
M  V30 7526 2 3734 3736
M  V30 7527 1 3735 8172
M  V30 7528 1 3735 8173
M  V30 7529 1 3736 8174
M  V30 7530 1 3736 8175
M  V30 7531 1 3737 3738
M  V30 7532 1 3737 8176
M  V30 7533 1 3738 3739
M  V30 7534 1 3738 3741
M  V30 7535 1 3738 8177
M  V30 7536 2 3739 3740
M  V30 7537 1 3739 3746
M  V30 7538 1 3741 3742
M  V30 7539 1 3741 8178
M  V30 7540 1 3741 8179
M  V30 7541 1 3742 3743
M  V30 7542 1 3742 8180
M  V30 7543 1 3742 8181
M  V30 7544 2 3743 3744
M  V30 7545 1 3743 3745
M  V30 7546 1 3746 3747
M  V30 7547 1 3746 8182
M  V30 7548 1 3747 3748
M  V30 7549 1 3747 3750
M  V30 7550 1 3747 8183
M  V30 7551 2 3748 3749
M  V30 7552 1 3748 3757
M  V30 7553 1 3750 3751
M  V30 7554 1 3750 8184
M  V30 7555 1 3750 8185
M  V30 7556 2 3751 3752
M  V30 7557 1 3751 3753
M  V30 7558 1 3752 3754
M  V30 7559 1 3752 8186
M  V30 7560 2 3753 3755
M  V30 7561 1 3753 8187
M  V30 7562 2 3754 3756
M  V30 7563 1 3754 8188
M  V30 7564 1 3755 3756
M  V30 7565 1 3755 8189
M  V30 7566 1 3756 8190
M  V30 7567 1 3757 3758
M  V30 7568 1 3757 8191
M  V30 7569 1 3758 3759
M  V30 7570 1 3758 3761
M  V30 7571 1 3758 8192
M  V30 7572 2 3759 3760
M  V30 7573 1 3759 3765
M  V30 7574 1 3761 3762
M  V30 7575 1 3761 8193
M  V30 7576 1 3761 8194
M  V30 7577 1 3762 3763
M  V30 7578 1 3762 3764
M  V30 7579 1 3762 8195
M  V30 7580 1 3763 8196
M  V30 7581 1 3763 8197
M  V30 7582 1 3763 8198
M  V30 7583 1 3764 8199
M  V30 7584 1 3764 8200
M  V30 7585 1 3764 8201
M  V30 7586 1 3765 3766
M  V30 7587 1 3765 8202
M  V30 7588 1 3766 3767
M  V30 7589 1 3766 3769
M  V30 7590 1 3766 8203
M  V30 7591 2 3767 3768
M  V30 7592 1 3767 3772
M  V30 7593 1 3769 3770
M  V30 7594 1 3769 3771
M  V30 7595 1 3769 8204
M  V30 7596 1 3770 8205
M  V30 7597 1 3770 8206
M  V30 7598 1 3770 8207
M  V30 7599 1 3771 8208
M  V30 7600 1 3772 3773
M  V30 7601 1 3772 8209
M  V30 7602 1 3773 3774
M  V30 7603 1 3773 3776
M  V30 7604 1 3773 8210
M  V30 7605 2 3774 3775
M  V30 7606 1 3774 3783
M  V30 7607 1 3776 3777
M  V30 7608 1 3776 8211
M  V30 7609 1 3776 8212
M  V30 7610 1 3777 3778
M  V30 7611 1 3777 8213
M  V30 7612 1 3777 8214
M  V30 7613 1 3778 3779
M  V30 7614 1 3778 8215
M  V30 7615 1 3778 8216
M  V30 7616 1 3779 3780
M  V30 7617 1 3779 8217
M  V30 7618 1 3780 3781
M  V30 7619 2 3780 3782
M  V30 7620 1 3781 8218
M  V30 7621 1 3781 8219
M  V30 7622 1 3782 8220
M  V30 7623 1 3782 8221
M  V30 7624 1 3783 3784
M  V30 7625 1 3783 8222
M  V30 7626 1 3784 3785
M  V30 7627 1 3784 3787
M  V30 7628 1 3784 8223
M  V30 7629 2 3785 3786
M  V30 7630 1 3785 3791
M  V30 7631 1 3787 3788
M  V30 7632 1 3787 8224
M  V30 7633 1 3787 8225
M  V30 7634 1 3788 3789
M  V30 7635 2 3788 3790
M  V30 7636 1 3789 8226
M  V30 7637 1 3789 8227
M  V30 7638 1 3791 3792
M  V30 7639 1 3791 3797
M  V30 7640 1 3792 3793
M  V30 7641 1 3792 3795
M  V30 7642 1 3792 8228
M  V30 7643 2 3793 3794
M  V30 7644 1 3793 3798
M  V30 7645 1 3795 3796
M  V30 7646 1 3795 8229
M  V30 7647 1 3795 8230
M  V30 7648 1 3796 3797
M  V30 7649 1 3796 8231
M  V30 7650 1 3796 8232
M  V30 7651 1 3797 8233
M  V30 7652 1 3797 8234
M  V30 7653 1 3798 3799
M  V30 7654 1 3798 8235
M  V30 7655 1 3799 3800
M  V30 7656 1 3799 3802
M  V30 7657 1 3799 8236
M  V30 7658 2 3800 3801
M  V30 7659 1 3800 3803
M  V30 7660 1 3802 8237
M  V30 7661 1 3802 8238
M  V30 7662 1 3802 8239
M  V30 7663 1 3803 3804
M  V30 7664 1 3803 8240
M  V30 7665 1 3804 3805
M  V30 7666 1 3804 3807
M  V30 7667 1 3804 8241
M  V30 7668 2 3805 3806
M  V30 7669 1 3805 3817
M  V30 7670 1 3807 3808
M  V30 7671 1 3807 8242
M  V30 7672 1 3807 8243
M  V30 7673 2 3808 3809
M  V30 7674 1 3808 3810
M  V30 7675 1 3809 3813
M  V30 7676 1 3809 8244
M  V30 7677 2 3810 3811
M  V30 7678 1 3810 3812
M  V30 7679 1 3811 3813
M  V30 7680 1 3811 3814
M  V30 7681 2 3812 3815
M  V30 7682 1 3812 8245
M  V30 7683 1 3813 8246
M  V30 7684 2 3814 3816
M  V30 7685 1 3814 8247
M  V30 7686 1 3815 3816
M  V30 7687 1 3815 8248
M  V30 7688 1 3816 8249
M  V30 7689 1 3817 3818
M  V30 7690 1 3817 8250
M  V30 7691 1 3818 3819
M  V30 7692 1 3818 3821
M  V30 7693 1 3818 8251
M  V30 7694 2 3819 3820
M  V30 7695 1 3819 3828
M  V30 7696 1 3821 3822
M  V30 7697 1 3821 8252
M  V30 7698 1 3821 8253
M  V30 7699 1 3822 3823
M  V30 7700 1 3822 8254
M  V30 7701 1 3822 8255
M  V30 7702 1 3823 3824
M  V30 7703 1 3823 8256
M  V30 7704 1 3823 8257
M  V30 7705 1 3824 3825
M  V30 7706 1 3824 8258
M  V30 7707 1 3825 3826
M  V30 7708 2 3825 3827
M  V30 7709 1 3826 8259
M  V30 7710 1 3826 8260
M  V30 7711 1 3827 8261
M  V30 7712 1 3827 8262
M  V30 7713 1 3828 3829
M  V30 7714 1 3828 8263
M  V30 7715 1 3829 3830
M  V30 7716 1 3829 3832
M  V30 7717 1 3829 8264
M  V30 7718 2 3830 3831
M  V30 7719 1 3830 3837
M  V30 7720 1 3832 3833
M  V30 7721 1 3832 8265
M  V30 7722 1 3832 8266
M  V30 7723 1 3833 3834
M  V30 7724 1 3833 8267
M  V30 7725 1 3833 8268
M  V30 7726 1 3834 3835
M  V30 7727 1 3834 8269
M  V30 7728 1 3834 8270
M  V30 7729 1 3835 3836
M  V30 7730 1 3835 8271
M  V30 7731 1 3835 8272
M  V30 7732 1 3836 8273
M  V30 7733 1 3836 8274
M  V30 7734 1 3836 8275
M  V30 7735 1 3837 3838
M  V30 7736 1 3837 8276
M  V30 7737 1 3838 3839
M  V30 7738 1 3838 3841
M  V30 7739 1 3838 8277
M  V30 7740 2 3839 3840
M  V30 7741 1 3839 3842
M  V30 7742 1 3841 8278
M  V30 7743 1 3841 8279
M  V30 7744 1 3841 8280
M  V30 7745 1 3842 3843
M  V30 7746 1 3842 8281
M  V30 7747 1 3843 3844
M  V30 7748 1 3843 3846
M  V30 7749 1 3843 8282
M  V30 7750 2 3844 3845
M  V30 7751 1 3844 3849
M  V30 7752 1 3846 3847
M  V30 7753 1 3846 3848
M  V30 7754 1 3846 8283
M  V30 7755 1 3847 8284
M  V30 7756 1 3847 8285
M  V30 7757 1 3847 8286
M  V30 7758 1 3848 8287
M  V30 7759 1 3848 8288
M  V30 7760 1 3848 8289
M  V30 7761 1 3849 3850
M  V30 7762 1 3849 8290
M  V30 7763 1 3850 3851
M  V30 7764 1 3850 3853
M  V30 7765 1 3850 8291
M  V30 7766 2 3851 3852
M  V30 7767 1 3851 3860
M  V30 7768 1 3853 3854
M  V30 7769 1 3853 8292
M  V30 7770 1 3853 8293
M  V30 7771 2 3854 3855
M  V30 7772 1 3854 3856
M  V30 7773 1 3855 3857
M  V30 7774 1 3855 8294
M  V30 7775 2 3856 3858
M  V30 7776 1 3856 8295
M  V30 7777 2 3857 3859
M  V30 7778 1 3857 8296
M  V30 7779 1 3858 3859
M  V30 7780 1 3858 8297
M  V30 7781 1 3859 8298
M  V30 7782 1 3860 3861
M  V30 7783 1 3860 8299
M  V30 7784 1 3861 3862
M  V30 7785 1 3861 3864
M  V30 7786 1 3861 8300
M  V30 7787 2 3862 3863
M  V30 7788 1 3862 3868
M  V30 7789 1 3864 3865
M  V30 7790 1 3864 3866
M  V30 7791 1 3864 8301
M  V30 7792 1 3865 3867
M  V30 7793 1 3865 8302
M  V30 7794 1 3865 8303
M  V30 7795 1 3866 8304
M  V30 7796 1 3866 8305
M  V30 7797 1 3866 8306
M  V30 7798 1 3867 8307
M  V30 7799 1 3867 8308
M  V30 7800 1 3867 8309
M  V30 7801 1 3868 3869
M  V30 7802 1 3868 8310
M  V30 7803 1 3869 3870
M  V30 7804 1 3869 3872
M  V30 7805 1 3869 8311
M  V30 7806 2 3870 3871
M  V30 7807 1 3870 3874
M  V30 7808 1 3872 3873
M  V30 7809 1 3872 8312
M  V30 7810 1 3872 8313
M  V30 7811 1 3873 8314
M  V30 7812 1 3874 3875
M  V30 7813 1 3874 3880
M  V30 7814 1 3875 3876
M  V30 7815 1 3875 3878
M  V30 7816 1 3875 8315
M  V30 7817 2 3876 3877
M  V30 7818 1 3876 3881
M  V30 7819 1 3878 3879
M  V30 7820 1 3878 8316
M  V30 7821 1 3878 8317
M  V30 7822 1 3879 3880
M  V30 7823 1 3879 8318
M  V30 7824 1 3879 8319
M  V30 7825 1 3880 8320
M  V30 7826 1 3880 8321
M  V30 7827 1 3881 3882
M  V30 7828 1 3881 8322
M  V30 7829 1 3882 3883
M  V30 7830 1 3882 3885
M  V30 7831 1 3882 8323
M  V30 7832 2 3883 3884
M  V30 7833 1 3883 3893
M  V30 7834 1 3885 3886
M  V30 7835 1 3885 8324
M  V30 7836 1 3885 8325
M  V30 7837 2 3886 3887
M  V30 7838 1 3886 3888
M  V30 7839 1 3887 3889
M  V30 7840 1 3887 8326
M  V30 7841 2 3888 3890
M  V30 7842 1 3888 8327
M  V30 7843 2 3889 3891
M  V30 7844 1 3889 8328
M  V30 7845 1 3890 3891
M  V30 7846 1 3890 8329
M  V30 7847 1 3891 3892
M  V30 7848 1 3892 8330
M  V30 7849 1 3893 3894
M  V30 7850 1 3893 8331
M  V30 7851 1 3894 3895
M  V30 7852 1 3894 3897
M  V30 7853 1 3894 8332
M  V30 7854 2 3895 3896
M  V30 7855 1 3895 3901
M  V30 7856 1 3897 3898
M  V30 7857 1 3897 8333
M  V30 7858 1 3897 8334
M  V30 7859 1 3898 3899
M  V30 7860 2 3898 3900
M  V30 7861 1 3899 8335
M  V30 7862 1 3899 8336
M  V30 7863 1 3901 3902
M  V30 7864 1 3901 8337
M  V30 7865 1 3902 3903
M  V30 7866 1 3902 3905
M  V30 7867 1 3902 8338
M  V30 7868 2 3903 3904
M  V30 7869 1 3903 3907
M  V30 7870 1 3905 3906
M  V30 7871 1 3905 8339
M  V30 7872 1 3905 8340
M  V30 7873 1 3906 8341
M  V30 7874 1 3907 3908
M  V30 7875 1 3907 8342
M  V30 7876 1 3908 3909
M  V30 7877 1 3908 3911
M  V30 7878 1 3908 8343
M  V30 7879 2 3909 3910
M  V30 7880 1 3909 3916
M  V30 7881 1 3911 3912
M  V30 7882 1 3911 8344
M  V30 7883 1 3911 8345
M  V30 7884 1 3912 3913
M  V30 7885 1 3912 8346
M  V30 7886 1 3912 8347
M  V30 7887 1 3913 3914
M  V30 7888 2 3913 3915
M  V30 7889 1 3914 8348
M  V30 7890 1 3914 8349
M  V30 7891 1 3916 3917
M  V30 7892 1 3916 8350
M  V30 7893 1 3917 3918
M  V30 7894 1 3917 3920
M  V30 7895 1 3917 8351
M  V30 7896 2 3918 3919
M  V30 7897 1 3918 3924
M  V30 7898 1 3920 3921
M  V30 7899 1 3920 8352
M  V30 7900 1 3920 8353
M  V30 7901 1 3921 3922
M  V30 7902 2 3921 3923
M  V30 7903 1 3922 8354
M  V30 7904 1 3922 8355
M  V30 7905 1 3924 3925
M  V30 7906 1 3924 8356
M  V30 7907 1 3925 3926
M  V30 7908 1 3925 3928
M  V30 7909 1 3925 8357
M  V30 7910 2 3926 3927
M  V30 7911 1 3926 3929
M  V30 7912 1 3928 8358
M  V30 7913 1 3928 8359
M  V30 7914 1 3928 8360
M  V30 7915 1 3929 3930
M  V30 7916 1 3929 8361
M  V30 7917 1 3930 3931
M  V30 7918 1 3930 3933
M  V30 7919 1 3930 8362
M  V30 7920 2 3931 3932
M  V30 7921 1 3931 3936
M  V30 7922 1 3933 3934
M  V30 7923 1 3933 3935
M  V30 7924 1 3933 8363
M  V30 7925 1 3934 8364
M  V30 7926 1 3934 8365
M  V30 7927 1 3934 8366
M  V30 7928 1 3935 8367
M  V30 7929 1 3935 8368
M  V30 7930 1 3935 8369
M  V30 7931 1 3936 3937
M  V30 7932 1 3936 8370
M  V30 7933 1 3937 3938
M  V30 7934 1 3937 3940
M  V30 7935 1 3937 8371
M  V30 7936 2 3938 3939
M  V30 7937 1 3938 3941
M  V30 7938 1 3940 8372
M  V30 7939 1 3940 8373
M  V30 7940 1 3940 8374
M  V30 7941 1 3941 3942
M  V30 7942 1 3941 8375
M  V30 7943 1 3942 3943
M  V30 7944 1 3942 3945
M  V30 7945 1 3942 8376
M  V30 7946 2 3943 3944
M  V30 7947 1 3943 3947
M  V30 7948 1 3945 3946
M  V30 7949 1 3945 8377
M  V30 7950 1 3945 8378
M  V30 7951 1 3946 8379
M  V30 7952 1 3947 3948
M  V30 7953 1 3947 8380
M  V30 7954 1 3948 3949
M  V30 7955 1 3948 8381
M  V30 7956 1 3948 9088
M  V30 7957 2 3949 3950
M  V30 7958 1 3949 3951
M  V30 7959 1 3951 3952
M  V30 7960 1 3951 8382
M  V30 7961 1 3952 3953
M  V30 7962 1 3952 3955
M  V30 7963 1 3952 8383
M  V30 7964 2 3953 3954
M  V30 7965 1 3953 3959
M  V30 7966 1 3955 3956
M  V30 7967 1 3955 3957
M  V30 7968 1 3955 8384
M  V30 7969 1 3956 3958
M  V30 7970 1 3956 8385
M  V30 7971 1 3956 8386
M  V30 7972 1 3957 8387
M  V30 7973 1 3957 8388
M  V30 7974 1 3957 8389
M  V30 7975 1 3958 8390
M  V30 7976 1 3958 8391
M  V30 7977 1 3958 8392
M  V30 7978 1 3959 3960
M  V30 7979 1 3959 8393
M  V30 7980 1 3960 3961
M  V30 7981 1 3960 3963
M  V30 7982 1 3960 8394
M  V30 7983 2 3961 3962
M  V30 7984 1 3961 3967
M  V30 7985 1 3963 3964
M  V30 7986 1 3963 8395
M  V30 7987 1 3963 8396
M  V30 7988 1 3964 3965
M  V30 7989 1 3964 3966
M  V30 7990 1 3964 8397
M  V30 7991 1 3965 8398
M  V30 7992 1 3965 8399
M  V30 7993 1 3965 8400
M  V30 7994 1 3966 8401
M  V30 7995 1 3966 8402
M  V30 7996 1 3966 8403
M  V30 7997 1 3967 3968
M  V30 7998 1 3967 8404
M  V30 7999 1 3968 3969
M  V30 8000 1 3968 8405
M  V30 8001 1 3968 8406
M  V30 8002 2 3969 3970
M  V30 8003 1 3969 3971
M  V30 8004 1 3971 3972
M  V30 8005 1 3971 8407
M  V30 8006 1 3972 3973
M  V30 8007 1 3972 3975
M  V30 8008 1 3972 8408
M  V30 8009 2 3973 3974
M  V30 8010 1 3973 3979
M  V30 8011 1 3975 3976
M  V30 8012 1 3975 8409
M  V30 8013 1 3975 8410
M  V30 8014 1 3976 3977
M  V30 8015 1 3976 3978
M  V30 8016 1 3976 8411
M  V30 8017 1 3977 8412
M  V30 8018 1 3977 8413
M  V30 8019 1 3977 8414
M  V30 8020 1 3978 8415
M  V30 8021 1 3978 8416
M  V30 8022 1 3978 8417
M  V30 8023 1 3979 3980
M  V30 8024 1 3979 3985
M  V30 8025 1 3980 3981
M  V30 8026 1 3980 3983
M  V30 8027 1 3980 8418
M  V30 8028 2 3981 3982
M  V30 8029 1 3981 3986
M  V30 8030 1 3983 3984
M  V30 8031 1 3983 8419
M  V30 8032 1 3983 8420
M  V30 8033 1 3984 3985
M  V30 8034 1 3984 8421
M  V30 8035 1 3984 8422
M  V30 8036 1 3985 8423
M  V30 8037 1 3985 8424
M  V30 8038 1 3986 3987
M  V30 8039 1 3986 8425
M  V30 8040 1 3987 3988
M  V30 8041 1 3987 3990
M  V30 8042 1 3987 8426
M  V30 8043 2 3988 3989
M  V30 8044 1 3988 3993
M  V30 8045 1 3990 3991
M  V30 8046 1 3990 3992
M  V30 8047 1 3990 8427
M  V30 8048 1 3991 8428
M  V30 8049 1 3991 8429
M  V30 8050 1 3991 8430
M  V30 8051 1 3992 8431
M  V30 8052 1 3993 3994
M  V30 8053 1 3993 8432
M  V30 8054 1 3994 3995
M  V30 8055 1 3994 3997
M  V30 8056 1 3994 8433
M  V30 8057 2 3995 3996
M  V30 8058 1 3995 4002
M  V30 8059 1 3997 3998
M  V30 8060 1 3997 8434
M  V30 8061 1 3997 8435
M  V30 8062 1 3998 3999
M  V30 8063 1 3998 8436
M  V30 8064 1 3998 8437
M  V30 8065 1 3999 4000
M  V30 8066 2 3999 4001
M  V30 8067 1 4000 8438
M  V30 8068 1 4000 8439
M  V30 8069 1 4002 4003
M  V30 8070 1 4002 8440
M  V30 8071 1 4003 4004
M  V30 8072 1 4003 4006
M  V30 8073 1 4003 8441
M  V30 8074 2 4004 4005
M  V30 8075 1 4004 4009
M  V30 8076 1 4006 4007
M  V30 8077 1 4006 4008
M  V30 8078 1 4006 8442
M  V30 8079 1 4007 8443
M  V30 8080 1 4007 8444
M  V30 8081 1 4007 8445
M  V30 8082 1 4008 8446
M  V30 8083 1 4009 4010
M  V30 8084 1 4009 8447
M  V30 8085 1 4010 4011
M  V30 8086 1 4010 4013
M  V30 8087 1 4010 8448
M  V30 8088 2 4011 4012
M  V30 8089 1 4011 4016
M  V30 8090 1 4013 4014
M  V30 8091 1 4013 4015
M  V30 8092 1 4013 8449
M  V30 8093 1 4014 8450
M  V30 8094 1 4014 8451
M  V30 8095 1 4014 8452
M  V30 8096 1 4015 8453
M  V30 8097 1 4015 8454
M  V30 8098 1 4015 8455
M  V30 8099 1 4016 4017
M  V30 8100 1 4016 8456
M  V30 8101 1 4017 4018
M  V30 8102 1 4017 4020
M  V30 8103 1 4017 8457
M  V30 8104 2 4018 4019
M  V30 8105 1 4018 4024
M  V30 8106 1 4020 4021
M  V30 8107 1 4020 8458
M  V30 8108 1 4020 8459
M  V30 8109 2 4021 4022
M  V30 8110 1 4021 4023
M  V30 8111 1 4024 4025
M  V30 8112 1 4024 8460
M  V30 8113 1 4025 4026
M  V30 8114 1 4025 4028
M  V30 8115 1 4025 8461
M  V30 8116 2 4026 4027
M  V30 8117 1 4026 4030
M  V30 8118 1 4028 4029
M  V30 8119 1 4028 8462
M  V30 8120 1 4028 8463
M  V30 8121 1 4029 8464
M  V30 8122 1 4030 4031
M  V30 8123 1 4030 8465
M  V30 8124 1 4031 4032
M  V30 8125 1 4031 4034
M  V30 8126 1 4031 8466
M  V30 8127 2 4032 4033
M  V30 8128 1 4032 4036
M  V30 8129 1 4034 4035
M  V30 8130 1 4034 8467
M  V30 8131 1 4034 8468
M  V30 8132 1 4035 8469
M  V30 8133 1 4036 4037
M  V30 8134 1 4036 8470
M  V30 8135 1 4037 4038
M  V30 8136 1 4037 4040
M  V30 8137 1 4037 8471
M  V30 8138 2 4038 4039
M  V30 8139 1 4038 4045
M  V30 8140 1 4040 4041
M  V30 8141 1 4040 8472
M  V30 8142 1 4040 8473
M  V30 8143 1 4041 4042
M  V30 8144 1 4041 8474
M  V30 8145 1 4041 8475
M  V30 8146 1 4042 4043
M  V30 8147 2 4042 4044
M  V30 8148 1 4043 8476
M  V30 8149 1 4043 8477
M  V30 8150 1 4045 4046
M  V30 8151 1 4045 8478
M  V30 8152 1 4046 4047
M  V30 8153 1 4046 8479
M  V30 8154 1 4046 8480
M  V30 8155 2 4047 4048
M  V30 8156 1 4047 4049
M  V30 8157 1 4049 4050
M  V30 8158 1 4049 8481
M  V30 8159 1 4050 4051
M  V30 8160 1 4050 4053
M  V30 8161 1 4050 8482
M  V30 8162 2 4051 4052
M  V30 8163 1 4051 4055
M  V30 8164 1 4053 4054
M  V30 8165 1 4053 8483
M  V30 8166 1 4053 8484
M  V30 8167 1 4054 8485
M  V30 8168 1 4055 4056
M  V30 8169 1 4055 8486
M  V30 8170 1 4056 4057
M  V30 8171 1 4056 4059
M  V30 8172 1 4056 8487
M  V30 8173 2 4057 4058
M  V30 8174 1 4057 4064
M  V30 8175 1 4059 4060
M  V30 8176 1 4059 8488
M  V30 8177 1 4059 8489
M  V30 8178 1 4060 4061
M  V30 8179 1 4060 8490
M  V30 8180 1 4060 8491
M  V30 8181 2 4061 4062
M  V30 8182 1 4061 4063
M  V30 8183 1 4064 4065
M  V30 8184 1 4064 8492
M  V30 8185 1 4065 4066
M  V30 8186 1 4065 4068
M  V30 8187 1 4065 8493
M  V30 8188 2 4066 4067
M  V30 8189 1 4066 4076
M  V30 8190 1 4068 4069
M  V30 8191 1 4068 8494
M  V30 8192 1 4068 8495
M  V30 8193 2 4069 4070
M  V30 8194 1 4069 4071
M  V30 8195 1 4070 4072
M  V30 8196 1 4070 8496
M  V30 8197 2 4071 4073
M  V30 8198 1 4071 8497
M  V30 8199 2 4072 4074
M  V30 8200 1 4072 8498
M  V30 8201 1 4073 4074
M  V30 8202 1 4073 8499
M  V30 8203 1 4074 4075
M  V30 8204 1 4075 8500
M  V30 8205 1 4076 4077
M  V30 8206 1 4076 8501
M  V30 8207 1 4077 4078
M  V30 8208 1 4077 4080
M  V30 8209 1 4077 8502
M  V30 8210 2 4078 4079
M  V30 8211 1 4078 4084
M  V30 8212 1 4080 4081
M  V30 8213 1 4080 8503
M  V30 8214 1 4080 8504
M  V30 8215 2 4081 4082
M  V30 8216 1 4081 4083
M  V30 8217 1 4084 4085
M  V30 8218 1 4084 8505
M  V30 8219 1 4085 4086
M  V30 8220 1 4085 4088
M  V30 8221 1 4085 8506
M  V30 8222 2 4086 4087
M  V30 8223 1 4086 4096
M  V30 8224 1 4088 4089
M  V30 8225 1 4088 8507
M  V30 8226 1 4088 8508
M  V30 8227 2 4089 4090
M  V30 8228 1 4089 4091
M  V30 8229 1 4090 4092
M  V30 8230 1 4090 8509
M  V30 8231 2 4091 4093
M  V30 8232 1 4091 8510
M  V30 8233 2 4092 4094
M  V30 8234 1 4092 8511
M  V30 8235 1 4093 4094
M  V30 8236 1 4093 8512
M  V30 8237 1 4094 4095
M  V30 8238 1 4095 8513
M  V30 8239 1 4096 4097
M  V30 8240 1 4096 8514
M  V30 8241 1 4097 4098
M  V30 8242 1 4097 4100
M  V30 8243 1 4097 8515
M  V30 8244 2 4098 4099
M  V30 8245 1 4098 4103
M  V30 8246 1 4100 4101
M  V30 8247 1 4100 4102
M  V30 8248 1 4100 8516
M  V30 8249 1 4101 8517
M  V30 8250 1 4101 8518
M  V30 8251 1 4101 8519
M  V30 8252 1 4102 8520
M  V30 8253 1 4102 8521
M  V30 8254 1 4102 8522
M  V30 8255 1 4103 4104
M  V30 8256 1 4103 8523
M  V30 8257 1 4104 4105
M  V30 8258 1 4104 4107
M  V30 8259 1 4104 8524
M  V30 8260 2 4105 4106
M  V30 8261 1 4105 4111
M  V30 8262 1 4107 4108
M  V30 8263 1 4107 4109
M  V30 8264 1 4107 8525
M  V30 8265 1 4108 4110
M  V30 8266 1 4108 8526
M  V30 8267 1 4108 8527
M  V30 8268 1 4109 8528
M  V30 8269 1 4109 8529
M  V30 8270 1 4109 8530
M  V30 8271 1 4110 8531
M  V30 8272 1 4110 8532
M  V30 8273 1 4110 8533
M  V30 8274 1 4111 4112
M  V30 8275 1 4111 8534
M  V30 8276 1 4112 4113
M  V30 8277 1 4112 4115
M  V30 8278 1 4112 8535
M  V30 8279 2 4113 4114
M  V30 8280 1 4113 4122
M  V30 8281 1 4115 4116
M  V30 8282 1 4115 8536
M  V30 8283 1 4115 8537
M  V30 8284 2 4116 4117
M  V30 8285 1 4116 4118
M  V30 8286 1 4117 4119
M  V30 8287 1 4117 8538
M  V30 8288 2 4118 4120
M  V30 8289 1 4118 8539
M  V30 8290 2 4119 4121
M  V30 8291 1 4119 8540
M  V30 8292 1 4120 4121
M  V30 8293 1 4120 8541
M  V30 8294 1 4121 8542
M  V30 8295 1 4122 4123
M  V30 8296 1 4122 8543
M  V30 8297 1 4123 4124
M  V30 8298 1 4123 4126
M  V30 8299 1 4123 8544
M  V30 8300 2 4124 4125
M  V30 8301 1 4124 4129
M  V30 8302 1 4126 4127
M  V30 8303 1 4126 4128
M  V30 8304 1 4126 8545
M  V30 8305 1 4127 8546
M  V30 8306 1 4127 8547
M  V30 8307 1 4127 8548
M  V30 8308 1 4128 8549
M  V30 8309 1 4129 4130
M  V30 8310 1 4129 8550
M  V30 8311 1 4130 4131
M  V30 8312 1 4130 4133
M  V30 8313 1 4130 8551
M  V30 8314 2 4131 4132
M  V30 8315 1 4131 4138
M  V30 8316 1 4133 4134
M  V30 8317 1 4133 8552
M  V30 8318 1 4133 8553
M  V30 8319 1 4134 4135
M  V30 8320 1 4134 8554
M  V30 8321 1 4134 8555
M  V30 8322 1 4135 4136
M  V30 8323 2 4135 4137
M  V30 8324 1 4136 8556
M  V30 8325 1 4136 8557
M  V30 8326 1 4138 4139
M  V30 8327 1 4138 8558
M  V30 8328 1 4139 4140
M  V30 8329 1 4139 4142
M  V30 8330 1 4139 8559
M  V30 8331 2 4140 4141
M  V30 8332 1 4140 4145
M  V30 8333 1 4142 4143
M  V30 8334 1 4142 4144
M  V30 8335 1 4142 8560
M  V30 8336 1 4143 8561
M  V30 8337 1 4143 8562
M  V30 8338 1 4143 8563
M  V30 8339 1 4144 8564
M  V30 8340 1 4145 4146
M  V30 8341 1 4145 8565
M  V30 8342 1 4146 4147
M  V30 8343 1 4146 4149
M  V30 8344 1 4146 8566
M  V30 8345 2 4147 4148
M  V30 8346 1 4147 4152
M  V30 8347 1 4149 4150
M  V30 8348 1 4149 4151
M  V30 8349 1 4149 8567
M  V30 8350 1 4150 8568
M  V30 8351 1 4150 8569
M  V30 8352 1 4150 8570
M  V30 8353 1 4151 8571
M  V30 8354 1 4152 4153
M  V30 8355 1 4152 8572
M  V30 8356 1 4153 4154
M  V30 8357 1 4153 4156
M  V30 8358 1 4153 8573
M  V30 8359 2 4154 4155
M  V30 8360 1 4154 4161
M  V30 8361 1 4156 4157
M  V30 8362 1 4156 8574
M  V30 8363 1 4156 8575
M  V30 8364 1 4157 4158
M  V30 8365 1 4157 8576
M  V30 8366 1 4157 8577
M  V30 8367 2 4158 4159
M  V30 8368 1 4158 4160
M  V30 8369 1 4161 4162
M  V30 8370 1 4161 8578
M  V30 8371 1 4162 4163
M  V30 8372 1 4162 4165
M  V30 8373 1 4162 8579
M  V30 8374 2 4163 4164
M  V30 8375 1 4163 4168
M  V30 8376 1 4165 4166
M  V30 8377 1 4165 4167
M  V30 8378 1 4165 8580
M  V30 8379 1 4166 8581
M  V30 8380 1 4166 8582
M  V30 8381 1 4166 8583
M  V30 8382 1 4167 8584
M  V30 8383 1 4168 4169
M  V30 8384 1 4168 8585
M  V30 8385 1 4169 4170
M  V30 8386 1 4169 4172
M  V30 8387 1 4169 8586
M  V30 8388 2 4170 4171
M  V30 8389 1 4170 4173
M  V30 8390 1 4172 8587
M  V30 8391 1 4172 8588
M  V30 8392 1 4172 8589
M  V30 8393 1 4173 4174
M  V30 8394 1 4173 8590
M  V30 8395 1 4174 4175
M  V30 8396 1 4174 4177
M  V30 8397 1 4174 8591
M  V30 8398 2 4175 4176
M  V30 8399 1 4175 4183
M  V30 8400 1 4177 4178
M  V30 8401 1 4177 8592
M  V30 8402 1 4177 8593
M  V30 8403 2 4178 4179
M  V30 8404 1 4178 4180
M  V30 8405 1 4179 4182
M  V30 8406 1 4179 8594
M  V30 8407 2 4180 4181
M  V30 8408 1 4181 4182
M  V30 8409 1 4181 8595
M  V30 8410 1 4182 9119
M  V30 8411 1 4183 4184
M  V30 8412 1 4183 8596
M  V30 8413 1 4184 4185
M  V30 8414 1 4184 4187
M  V30 8415 1 4184 8597
M  V30 8416 2 4185 4186
M  V30 8417 1 4185 4189
M  V30 8418 1 4187 4188
M  V30 8419 1 4187 8598
M  V30 8420 1 4187 8599
M  V30 8421 1 4188 8600
M  V30 8422 1 4189 4190
M  V30 8423 1 4189 8601
M  V30 8424 1 4190 4191
M  V30 8425 1 4190 4193
M  V30 8426 1 4190 8602
M  V30 8427 2 4191 4192
M  V30 8428 1 4191 4195
M  V30 8429 1 4193 4194
M  V30 8430 1 4193 8603
M  V30 8431 1 4193 8604
M  V30 8432 1 4194 8605
M  V30 8433 1 4195 4196
M  V30 8434 1 4195 8606
M  V30 8435 1 4196 4197
M  V30 8436 1 4196 4199
M  V30 8437 1 4196 8607
M  V30 8438 2 4197 4198
M  V30 8439 1 4197 4203
M  V30 8440 1 4199 4200
M  V30 8441 1 4199 8608
M  V30 8442 1 4199 8609
M  V30 8443 1 4200 4201
M  V30 8444 2 4200 4202
M  V30 8445 1 4201 8610
M  V30 8446 1 4201 8611
M  V30 8447 1 4203 4204
M  V30 8448 1 4203 8612
M  V30 8449 1 4204 4205
M  V30 8450 1 4204 4207
M  V30 8451 1 4204 8613
M  V30 8452 2 4205 4206
M  V30 8453 1 4205 4210
M  V30 8454 1 4207 4208
M  V30 8455 1 4207 4209
M  V30 8456 1 4207 8614
M  V30 8457 1 4208 8615
M  V30 8458 1 4208 8616
M  V30 8459 1 4208 8617
M  V30 8460 1 4209 8618
M  V30 8461 1 4209 8619
M  V30 8462 1 4209 8620
M  V30 8463 1 4210 4211
M  V30 8464 1 4210 8621
M  V30 8465 1 4211 4212
M  V30 8466 1 4211 4214
M  V30 8467 1 4211 8622
M  V30 8468 2 4212 4213
M  V30 8469 1 4212 4218
M  V30 8470 1 4214 4215
M  V30 8471 1 4214 8623
M  V30 8472 1 4214 8624
M  V30 8473 1 4215 4216
M  V30 8474 2 4215 4217
M  V30 8475 1 4216 8625
M  V30 8476 1 4216 8626
M  V30 8477 1 4218 4219
M  V30 8478 1 4218 8627
M  V30 8479 1 4219 4220
M  V30 8480 1 4219 4222
M  V30 8481 1 4219 8628
M  V30 8482 2 4220 4221
M  V30 8483 1 4220 4229
M  V30 8484 1 4222 4223
M  V30 8485 1 4222 8629
M  V30 8486 1 4222 8630
M  V30 8487 1 4223 4224
M  V30 8488 1 4223 8631
M  V30 8489 1 4223 8632
M  V30 8490 1 4224 4225
M  V30 8491 1 4224 8633
M  V30 8492 1 4224 8634
M  V30 8493 1 4225 4226
M  V30 8494 1 4225 8635
M  V30 8495 1 4226 4227
M  V30 8496 2 4226 4228
M  V30 8497 1 4227 8636
M  V30 8498 1 4227 8637
M  V30 8499 1 4228 8638
M  V30 8500 1 4228 8639
M  V30 8501 1 4229 4230
M  V30 8502 1 4229 8640
M  V30 8503 1 4230 4231
M  V30 8504 1 4230 4233
M  V30 8505 1 4230 8641
M  V30 8506 2 4231 4232
M  V30 8507 1 4231 4240
M  V30 8508 1 4233 4234
M  V30 8509 1 4233 8642
M  V30 8510 1 4233 8643
M  V30 8511 2 4234 4235
M  V30 8512 1 4234 4236
M  V30 8513 1 4235 4237
M  V30 8514 1 4235 8644
M  V30 8515 2 4236 4238
M  V30 8516 1 4236 8645
M  V30 8517 2 4237 4239
M  V30 8518 1 4237 8646
M  V30 8519 1 4238 4239
M  V30 8520 1 4238 8647
M  V30 8521 1 4239 8648
M  V30 8522 1 4240 4241
M  V30 8523 1 4240 8649
M  V30 8524 1 4241 4242
M  V30 8525 1 4241 4244
M  V30 8526 1 4241 8650
M  V30 8527 2 4242 4243
M  V30 8528 1 4242 4248
M  V30 8529 1 4244 4245
M  V30 8530 1 4244 8651
M  V30 8531 1 4244 8652
M  V30 8532 1 4245 4246
M  V30 8533 2 4245 4247
M  V30 8534 1 4246 8653
M  V30 8535 1 4246 8654
M  V30 8536 1 4248 4249
M  V30 8537 1 4248 8655
M  V30 8538 1 4249 4250
M  V30 8539 1 4249 4252
M  V30 8540 1 4249 8656
M  V30 8541 2 4250 4251
M  V30 8542 1 4250 4255
M  V30 8543 1 4252 4253
M  V30 8544 1 4252 4254
M  V30 8545 1 4252 8657
M  V30 8546 1 4253 8658
M  V30 8547 1 4253 8659
M  V30 8548 1 4253 8660
M  V30 8549 1 4254 8661
M  V30 8550 1 4254 8662
M  V30 8551 1 4254 8663
M  V30 8552 1 4255 4256
M  V30 8553 1 4255 8664
M  V30 8554 1 4256 4257
M  V30 8555 1 4256 4259
M  V30 8556 1 4256 8665
M  V30 8557 2 4257 4258
M  V30 8558 1 4257 4260
M  V30 8559 1 4259 8666
M  V30 8560 1 4259 8667
M  V30 8561 1 4259 8668
M  V30 8562 1 4260 4261
M  V30 8563 1 4260 8669
M  V30 8564 1 4261 4262
M  V30 8565 1 4261 4264
M  V30 8566 1 4261 8670
M  V30 8567 2 4262 4263
M  V30 8568 1 4262 4268
M  V30 8569 1 4264 4265
M  V30 8570 1 4264 4266
M  V30 8571 1 4264 8671
M  V30 8572 1 4265 4267
M  V30 8573 1 4265 8672
M  V30 8574 1 4265 8673
M  V30 8575 1 4266 8674
M  V30 8576 1 4266 8675
M  V30 8577 1 4266 8676
M  V30 8578 1 4267 8677
M  V30 8579 1 4267 8678
M  V30 8580 1 4267 8679
M  V30 8581 1 4268 4269
M  V30 8582 1 4268 8680
M  V30 8583 1 4269 4270
M  V30 8584 1 4269 4272
M  V30 8585 1 4269 8681
M  V30 8586 2 4270 4271
M  V30 8587 1 4270 4275
M  V30 8588 1 4272 4273
M  V30 8589 1 4272 4274
M  V30 8590 1 4272 8682
M  V30 8591 1 4273 8683
M  V30 8592 1 4273 8684
M  V30 8593 1 4273 8685
M  V30 8594 1 4274 8686
M  V30 8595 1 4275 4276
M  V30 8596 1 4275 8687
M  V30 8597 1 4276 4277
M  V30 8598 1 4276 4279
M  V30 8599 1 4276 8688
M  V30 8600 2 4277 4278
M  V30 8601 1 4277 4286
M  V30 8602 1 4279 4280
M  V30 8603 1 4279 8689
M  V30 8604 1 4279 8690
M  V30 8605 1 4280 4281
M  V30 8606 1 4280 8691
M  V30 8607 1 4280 8692
M  V30 8608 1 4281 4282
M  V30 8609 1 4281 8693
M  V30 8610 1 4281 8694
M  V30 8611 1 4282 4283
M  V30 8612 1 4282 8695
M  V30 8613 1 4283 4284
M  V30 8614 2 4283 4285
M  V30 8615 1 4284 8696
M  V30 8616 1 4284 8697
M  V30 8617 1 4285 8698
M  V30 8618 1 4285 8699
M  V30 8619 1 4286 4287
M  V30 8620 1 4286 8700
M  V30 8621 1 4287 4288
M  V30 8622 1 4287 4290
M  V30 8623 1 4287 8701
M  V30 8624 2 4288 4289
M  V30 8625 1 4288 4291
M  V30 8626 1 4290 8702
M  V30 8627 1 4290 8703
M  V30 8628 1 4290 8704
M  V30 8629 1 4291 4292
M  V30 8630 1 4291 8705
M  V30 8631 1 4292 4293
M  V30 8632 1 4292 4295
M  V30 8633 1 4292 8706
M  V30 8634 2 4293 4294
M  V30 8635 1 4293 4300
M  V30 8636 1 4295 4296
M  V30 8637 1 4295 8707
M  V30 8638 1 4295 8708
M  V30 8639 1 4296 4297
M  V30 8640 1 4296 8709
M  V30 8641 1 4296 8710
M  V30 8642 1 4297 4298
M  V30 8643 1 4297 8711
M  V30 8644 1 4297 8712
M  V30 8645 1 4298 4299
M  V30 8646 1 4298 8713
M  V30 8647 1 4298 8714
M  V30 8648 1 4299 8715
M  V30 8649 1 4299 8716
M  V30 8650 1 4299 8717
M  V30 8651 1 4300 4301
M  V30 8652 1 4300 8718
M  V30 8653 1 4301 4302
M  V30 8654 1 4301 4304
M  V30 8655 1 4301 8719
M  V30 8656 2 4302 4303
M  V30 8657 1 4302 4307
M  V30 8658 1 4304 4305
M  V30 8659 1 4304 4306
M  V30 8660 1 4304 8720
M  V30 8661 1 4305 8721
M  V30 8662 1 4305 8722
M  V30 8663 1 4305 8723
M  V30 8664 1 4306 8724
M  V30 8665 1 4306 8725
M  V30 8666 1 4306 8726
M  V30 8667 1 4307 4308
M  V30 8668 1 4307 8727
M  V30 8669 1 4308 4309
M  V30 8670 1 4308 8728
M  V30 8671 1 4308 8729
M  V30 8672 2 4309 4310
M  V30 8673 1 4309 4311
M  V30 8674 1 4311 4312
M  V30 8675 1 4311 8730
M  V30 8676 1 4312 4313
M  V30 8677 1 4312 4315
M  V30 8678 1 4312 8731
M  V30 8679 2 4313 4314
M  V30 8680 1 4313 4319
M  V30 8681 1 4315 4316
M  V30 8682 1 4315 4317
M  V30 8683 1 4315 8732
M  V30 8684 1 4316 4318
M  V30 8685 1 4316 8733
M  V30 8686 1 4316 8734
M  V30 8687 1 4317 8735
M  V30 8688 1 4317 8736
M  V30 8689 1 4317 8737
M  V30 8690 1 4318 8738
M  V30 8691 1 4318 8739
M  V30 8692 1 4318 8740
M  V30 8693 1 4319 4320
M  V30 8694 1 4319 8741
M  V30 8695 1 4320 4321
M  V30 8696 1 4320 4323
M  V30 8697 1 4320 8742
M  V30 8698 2 4321 4322
M  V30 8699 1 4321 4327
M  V30 8700 1 4323 4324
M  V30 8701 1 4323 8743
M  V30 8702 1 4323 8744
M  V30 8703 1 4324 4325
M  V30 8704 1 4324 4326
M  V30 8705 1 4324 8745
M  V30 8706 1 4325 8746
M  V30 8707 1 4325 8747
M  V30 8708 1 4325 8748
M  V30 8709 1 4326 8749
M  V30 8710 1 4326 8750
M  V30 8711 1 4326 8751
M  V30 8712 1 4327 4328
M  V30 8713 1 4327 8752
M  V30 8714 1 4328 4329
M  V30 8715 1 4328 4331
M  V30 8716 1 4328 8753
M  V30 8717 2 4329 4330
M  V30 8718 1 4329 4333
M  V30 8719 1 4331 4332
M  V30 8720 1 4331 8754
M  V30 8721 1 4331 8755
M  V30 8722 1 4332 8756
M  V30 8723 1 4333 4334
M  V30 8724 1 4333 8757
M  V30 8725 1 4334 4335
M  V30 8726 1 4334 4337
M  V30 8727 1 4334 8758
M  V30 8728 2 4335 4336
M  V30 8729 1 4335 4341
M  V30 8730 1 4337 4338
M  V30 8731 1 4337 4339
M  V30 8732 1 4337 8759
M  V30 8733 1 4338 4340
M  V30 8734 1 4338 8760
M  V30 8735 1 4338 8761
M  V30 8736 1 4339 8762
M  V30 8737 1 4339 8763
M  V30 8738 1 4339 8764
M  V30 8739 1 4340 8765
M  V30 8740 1 4340 8766
M  V30 8741 1 4340 8767
M  V30 8742 1 4341 4342
M  V30 8743 1 4341 8768
M  V30 8744 1 4342 4343
M  V30 8745 1 4342 4345
M  V30 8746 1 4342 8769
M  V30 8747 2 4343 4344
M  V30 8748 1 4343 4349
M  V30 8749 1 4345 4346
M  V30 8750 1 4345 8770
M  V30 8751 1 4345 8771
M  V30 8752 1 4346 4347
M  V30 8753 1 4346 8772
M  V30 8754 1 4346 8773
M  V30 8755 1 4347 4348
M  V30 8756 1 4348 8774
M  V30 8757 1 4348 8775
M  V30 8758 1 4348 8776
M  V30 8759 1 4349 4350
M  V30 8760 1 4349 8777
M  V30 8761 1 4350 4351
M  V30 8762 1 4350 4353
M  V30 8763 1 4350 8778
M  V30 8764 2 4351 4352
M  V30 8765 1 4351 4355
M  V30 8766 1 4353 4354
M  V30 8767 1 4353 8779
M  V30 8768 1 4353 8780
M  V30 8769 1 4354 8781
M  V30 8770 1 4355 4356
M  V30 8771 1 4355 8782
M  V30 8772 1 4356 4357
M  V30 8773 1 4356 4359
M  V30 8774 1 4356 8783
M  V30 8775 2 4357 4358
M  V30 8776 1 4357 4363
M  V30 8777 1 4359 4360
M  V30 8778 1 4359 8784
M  V30 8779 1 4359 8785
M  V30 8780 2 4360 4361
M  V30 8781 1 4360 4362
M  V30 8782 1 4363 4364
M  V30 8783 1 4363 8786
M  V30 8784 1 4364 4365
M  V30 8785 1 4364 4367
M  V30 8786 1 4364 8787
M  V30 8787 2 4365 4366
M  V30 8788 1 4365 4374
M  V30 8789 1 4367 4368
M  V30 8790 1 4367 8788
M  V30 8791 1 4367 8789
M  V30 8792 1 4368 4369
M  V30 8793 1 4368 8790
M  V30 8794 1 4368 8791
M  V30 8795 1 4369 4370
M  V30 8796 1 4369 8792
M  V30 8797 1 4369 8793
M  V30 8798 1 4370 4371
M  V30 8799 1 4370 8794
M  V30 8800 1 4371 4372
M  V30 8801 2 4371 4373
M  V30 8802 1 4372 8795
M  V30 8803 1 4372 8796
M  V30 8804 1 4373 8797
M  V30 8805 1 4373 8798
M  V30 8806 1 4374 4375
M  V30 8807 1 4374 8799
M  V30 8808 1 4375 4376
M  V30 8809 1 4375 4378
M  V30 8810 1 4375 8800
M  V30 8811 2 4376 4377
M  V30 8812 1 4376 4382
M  V30 8813 1 4378 4379
M  V30 8814 1 4378 8801
M  V30 8815 1 4378 8802
M  V30 8816 2 4379 4380
M  V30 8817 1 4379 4381
M  V30 8818 1 4382 4383
M  V30 8819 1 4382 8803
M  V30 8820 1 4383 4384
M  V30 8821 1 4383 4386
M  V30 8822 1 4383 8804
M  V30 8823 2 4384 4385
M  V30 8824 1 4384 4390
M  V30 8825 1 4386 4387
M  V30 8826 1 4386 8805
M  V30 8827 1 4386 8806
M  V30 8828 1 4387 4388
M  V30 8829 1 4387 4389
M  V30 8830 1 4387 8807
M  V30 8831 1 4388 8808
M  V30 8832 1 4388 8809
M  V30 8833 1 4388 8810
M  V30 8834 1 4389 8811
M  V30 8835 1 4389 8812
M  V30 8836 1 4389 8813
M  V30 8837 1 4390 4391
M  V30 8838 1 4390 8814
M  V30 8839 1 4391 4392
M  V30 8840 1 4391 4394
M  V30 8841 1 4391 8815
M  V30 8842 2 4392 4393
M  V30 8843 1 4392 4402
M  V30 8844 1 4394 4395
M  V30 8845 1 4394 8816
M  V30 8846 1 4394 8817
M  V30 8847 2 4395 4396
M  V30 8848 1 4395 4397
M  V30 8849 1 4396 4398
M  V30 8850 1 4396 8818
M  V30 8851 2 4397 4399
M  V30 8852 1 4397 8819
M  V30 8853 2 4398 4400
M  V30 8854 1 4398 8820
M  V30 8855 1 4399 4400
M  V30 8856 1 4399 8821
M  V30 8857 1 4400 4401
M  V30 8858 1 4401 8822
M  V30 8859 1 4402 4403
M  V30 8860 1 4402 8823
M  V30 8861 1 4403 4404
M  V30 8862 1 4403 4406
M  V30 8863 1 4403 8824
M  V30 8864 2 4404 4405
M  V30 8865 1 4404 4410
M  V30 8866 1 4406 4407
M  V30 8867 1 4406 8825
M  V30 8868 1 4406 8826
M  V30 8869 2 4407 4408
M  V30 8870 1 4407 4409
M  V30 8871 1 4410 4411
M  V30 8872 1 4410 8827
M  V30 8873 1 4411 4412
M  V30 8874 1 4411 4414
M  V30 8875 1 4411 8828
M  V30 8876 2 4412 4413
M  V30 8877 1 4412 4419
M  V30 8878 1 4414 4415
M  V30 8879 1 4414 8829
M  V30 8880 1 4414 8830
M  V30 8881 1 4415 4416
M  V30 8882 1 4415 8831
M  V30 8883 1 4415 8832
M  V30 8884 1 4416 4417
M  V30 8885 1 4416 8833
M  V30 8886 1 4416 8834
M  V30 8887 1 4417 4418
M  V30 8888 1 4417 8835
M  V30 8889 1 4417 8836
M  V30 8890 1 4418 8837
M  V30 8891 1 4418 8838
M  V30 8892 1 4418 8839
M  V30 8893 1 4419 4420
M  V30 8894 1 4419 8840
M  V30 8895 1 4420 4421
M  V30 8896 1 4420 4423
M  V30 8897 1 4420 8841
M  V30 8898 2 4421 4422
M  V30 8899 1 4421 4427
M  V30 8900 1 4423 4424
M  V30 8901 1 4423 8842
M  V30 8902 1 4423 8843
M  V30 8903 1 4424 4425
M  V30 8904 1 4424 4426
M  V30 8905 1 4424 8844
M  V30 8906 1 4425 8845
M  V30 8907 1 4425 8846
M  V30 8908 1 4425 8847
M  V30 8909 1 4426 8848
M  V30 8910 1 4426 8849
M  V30 8911 1 4426 8850
M  V30 8912 1 4427 4428
M  V30 8913 1 4427 8851
M  V30 8914 1 4428 4429
M  V30 8915 1 4428 4431
M  V30 8916 1 4428 8852
M  V30 8917 2 4429 4430
M  V30 8918 1 4429 4436
M  V30 8919 1 4431 4432
M  V30 8920 1 4431 8853
M  V30 8921 1 4431 8854
M  V30 8922 1 4432 4433
M  V30 8923 1 4432 8855
M  V30 8924 1 4432 8856
M  V30 8925 1 4433 4434
M  V30 8926 2 4433 4435
M  V30 8927 1 4434 8857
M  V30 8928 1 4434 8858
M  V30 8929 1 4436 4437
M  V30 8930 1 4436 8859
M  V30 8931 1 4437 4438
M  V30 8932 1 4437 4440
M  V30 8933 1 4437 8860
M  V30 8934 2 4438 4439
M  V30 8935 1 4438 4447
M  V30 8936 1 4440 4441
M  V30 8937 1 4440 8861
M  V30 8938 1 4440 8862
M  V30 8939 2 4441 4442
M  V30 8940 1 4441 4443
M  V30 8941 1 4442 4444
M  V30 8942 1 4442 8863
M  V30 8943 2 4443 4445
M  V30 8944 1 4443 8864
M  V30 8945 2 4444 4446
M  V30 8946 1 4444 8865
M  V30 8947 1 4445 4446
M  V30 8948 1 4445 8866
M  V30 8949 1 4446 8867
M  V30 8950 1 4447 4448
M  V30 8951 1 4447 8868
M  V30 8952 1 4448 4449
M  V30 8953 1 4448 4451
M  V30 8954 1 4448 8869
M  V30 8955 2 4449 4450
M  V30 8956 1 4449 4454
M  V30 8957 1 4451 4452
M  V30 8958 1 4451 4453
M  V30 8959 1 4451 8870
M  V30 8960 1 4452 8871
M  V30 8961 1 4452 8872
M  V30 8962 1 4452 8873
M  V30 8963 1 4453 8874
M  V30 8964 1 4454 4455
M  V30 8965 1 4454 8875
M  V30 8966 1 4455 4456
M  V30 8967 1 4455 4458
M  V30 8968 1 4455 8876
M  V30 8969 2 4456 4457
M  V30 8970 1 4456 4460
M  V30 8971 1 4458 4459
M  V30 8972 1 4458 8877
M  V30 8973 1 4458 8878
M  V30 8974 1 4459 8879
M  V30 8975 1 4460 4461
M  V30 8976 1 4460 8880
M  V30 8977 1 4461 4462
M  V30 8978 1 4461 4464
M  V30 8979 1 4461 8881
M  V30 8980 2 4462 4463
M  V30 8981 1 4462 4468
M  V30 8982 1 4464 4465
M  V30 8983 1 4464 8882
M  V30 8984 1 4464 8883
M  V30 8985 1 4465 4466
M  V30 8986 1 4465 4467
M  V30 8987 1 4465 8884
M  V30 8988 1 4466 8885
M  V30 8989 1 4466 8886
M  V30 8990 1 4466 8887
M  V30 8991 1 4467 8888
M  V30 8992 1 4467 8889
M  V30 8993 1 4467 8890
M  V30 8994 1 4468 4469
M  V30 8995 1 4468 8891
M  V30 8996 1 4469 4470
M  V30 8997 1 4469 8892
M  V30 8998 1 4469 9104
M  V30 8999 2 4470 4471
M  V30 9000 1 4470 4472
M  V30 9001 1 4472 4473
M  V30 9002 1 4472 8893
M  V30 9003 1 4473 4474
M  V30 9004 1 4473 4476
M  V30 9005 1 4473 8894
M  V30 9006 2 4474 4475
M  V30 9007 1 4474 4480
M  V30 9008 1 4476 4477
M  V30 9009 1 4476 4478
M  V30 9010 1 4476 8895
M  V30 9011 1 4477 4479
M  V30 9012 1 4477 8896
M  V30 9013 1 4477 8897
M  V30 9014 1 4478 8898
M  V30 9015 1 4478 8899
M  V30 9016 1 4478 8900
M  V30 9017 1 4479 8901
M  V30 9018 1 4479 8902
M  V30 9019 1 4479 8903
M  V30 9020 1 4480 4481
M  V30 9021 1 4480 4486
M  V30 9022 1 4481 4482
M  V30 9023 1 4481 4484
M  V30 9024 1 4481 8904
M  V30 9025 2 4482 4483
M  V30 9026 1 4482 8905
M  V30 9027 1 4484 4485
M  V30 9028 1 4484 8906
M  V30 9029 1 4484 8907
M  V30 9030 1 4485 4486
M  V30 9031 1 4485 8908
M  V30 9032 1 4485 8909
M  V30 9033 1 4486 8910
M  V30 9034 1 4486 8911
M  V30 9035 1 8912 8913
M  V30 9036 1 8912 8917
M  V30 9037 1 8912 8918
M  V30 9038 1 8913 8914
M  V30 9039 1 8913 8919
M  V30 9040 1 8913 8920
M  V30 9041 1 8914 8915
M  V30 9042 1 8914 8921
M  V30 9043 1 8914 8922
M  V30 9044 1 8915 8916
M  V30 9045 1 8915 8923
M  V30 9046 1 8915 8924
M  V30 9047 1 8916 8925
M  V30 9048 1 8916 8926
M  V30 9049 1 8916 8927
M  V30 9050 1 8928 8929
M  V30 9051 1 8928 8933
M  V30 9052 1 8928 8934
M  V30 9053 1 8929 8930
M  V30 9054 1 8929 8935
M  V30 9055 1 8929 8936
M  V30 9056 1 8930 8931
M  V30 9057 1 8930 8937
M  V30 9058 1 8930 8938
M  V30 9059 1 8931 8932
M  V30 9060 1 8931 8939
M  V30 9061 1 8931 8940
M  V30 9062 1 8932 8941
M  V30 9063 1 8932 8942
M  V30 9064 1 8932 8943
M  V30 9065 1 8944 8945
M  V30 9066 1 8944 8948
M  V30 9067 1 8944 8949
M  V30 9068 2 8945 8946
M  V30 9069 1 8945 8947
M  V30 9070 1 8950 8951
M  V30 9071 1 8950 8954
M  V30 9072 1 8950 8955
M  V30 9073 2 8951 8952
M  V30 9074 1 8951 8953
M  V30 9075 1 8953 8956
M  V30 9076 1 8953 8957
M  V30 9077 1 8958 8959
M  V30 9078 1 8958 8965
M  V30 9079 1 8958 8966
M  V30 9080 1 8959 8960
M  V30 9081 1 8959 8967
M  V30 9082 1 8959 8968
M  V30 9083 1 8960 8961
M  V30 9084 1 8960 8969
M  V30 9085 1 8960 8970
M  V30 9086 1 8961 8962
M  V30 9087 1 8961 8971
M  V30 9088 1 8962 8963
M  V30 9089 2 8962 8964
M  V30 9090 1 8963 8972
M  V30 9091 1 8963 8973
M  V30 9092 1 8964 8974
M  V30 9093 1 8964 8975
M  V30 9094 1 8976 8977
M  V30 9095 1 8976 8983
M  V30 9096 1 8976 8984
M  V30 9097 1 8977 8978
M  V30 9098 1 8977 8985
M  V30 9099 1 8977 8986
M  V30 9100 1 8978 8979
M  V30 9101 1 8978 8987
M  V30 9102 1 8978 8988
M  V30 9103 1 8979 8980
M  V30 9104 1 8979 8989
M  V30 9105 1 8980 8981
M  V30 9106 2 8980 8982
M  V30 9107 1 8981 8990
M  V30 9108 1 8981 8991
M  V30 9109 1 8982 8992
M  V30 9110 1 8982 8993
M  V30 9111 1 8994 8995
M  V30 9112 1 8994 9001
M  V30 9113 1 8994 9002
M  V30 9114 1 8995 8996
M  V30 9115 1 8995 9003
M  V30 9116 1 8995 9004
M  V30 9117 1 8996 8997
M  V30 9118 1 8996 9005
M  V30 9119 1 8996 9006
M  V30 9120 1 8997 8998
M  V30 9121 1 8997 9007
M  V30 9122 1 8998 8999
M  V30 9123 2 8998 9000
M  V30 9124 1 8999 9008
M  V30 9125 1 8999 9009
M  V30 9126 1 9000 9010
M  V30 9127 1 9000 9011
M  V30 9128 1 9012 9013
M  V30 9129 1 9012 9017
M  V30 9130 1 9012 9018
M  V30 9131 1 9013 9014
M  V30 9132 1 9013 9019
M  V30 9133 1 9013 9020
M  V30 9134 1 9014 9015
M  V30 9135 1 9014 9021
M  V30 9136 1 9014 9022
M  V30 9137 1 9015 9016
M  V30 9138 1 9015 9023
M  V30 9139 1 9015 9024
M  V30 9140 1 9016 9025
M  V30 9141 1 9016 9026
M  V30 9142 1 9016 9027
M  V30 9143 1 9028 9029
M  V30 9144 1 9028 9035
M  V30 9145 1 9028 9036
M  V30 9146 1 9029 9030
M  V30 9147 1 9029 9037
M  V30 9148 1 9029 9038
M  V30 9149 1 9030 9031
M  V30 9150 1 9030 9039
M  V30 9151 1 9030 9040
M  V30 9152 1 9031 9032
M  V30 9153 1 9031 9041
M  V30 9154 1 9032 9033
M  V30 9155 2 9032 9034
M  V30 9156 1 9033 9042
M  V30 9157 1 9033 9043
M  V30 9158 1 9034 9044
M  V30 9159 1 9034 9045
M  V30 9160 1 9046 9047
M  V30 9161 1 9046 9048
M  V30 9162 1 9046 9049
M  V30 9163 1 9047 9050
M  V30 9164 1 9048 9051
M  V30 9165 1 9048 9052
M  V30 9166 1 9048 9053
M  V30 9167 1 9054 9055
M  V30 9168 1 9054 9059
M  V30 9169 1 9054 9060
M  V30 9170 1 9055 9056
M  V30 9171 1 9055 9061
M  V30 9172 1 9055 9062
M  V30 9173 1 9056 9057
M  V30 9174 1 9056 9063
M  V30 9175 1 9056 9064
M  V30 9176 1 9057 9058
M  V30 9177 1 9057 9065
M  V30 9178 1 9057 9066
M  V30 9179 1 9058 9067
M  V30 9180 1 9058 9068
M  V30 9181 1 9058 9069
M  V30 9182 1 9070 9071
M  V30 9183 1 9070 9077
M  V30 9184 1 9070 9078
M  V30 9185 1 9071 9072
M  V30 9186 1 9071 9079
M  V30 9187 1 9071 9080
M  V30 9188 1 9072 9073
M  V30 9189 1 9072 9081
M  V30 9190 1 9072 9082
M  V30 9191 1 9073 9074
M  V30 9192 1 9073 9083
M  V30 9193 1 9074 9075
M  V30 9194 2 9074 9076
M  V30 9195 1 9075 9084
M  V30 9196 1 9075 9085
M  V30 9197 1 9076 9086
M  V30 9198 1 9076 9087
M  V30 9199 1 9088 9089
M  V30 9200 1 9088 9093
M  V30 9201 1 9088 9094
M  V30 9202 1 9089 9090
M  V30 9203 1 9089 9095
M  V30 9204 1 9089 9096
M  V30 9205 1 9090 9091
M  V30 9206 1 9090 9097
M  V30 9207 1 9090 9098
M  V30 9208 1 9091 9092
M  V30 9209 1 9091 9099
M  V30 9210 1 9091 9100
M  V30 9211 1 9092 9101
M  V30 9212 1 9092 9102
M  V30 9213 1 9092 9103
M  V30 9214 1 9104 9105
M  V30 9215 1 9104 9109
M  V30 9216 1 9104 9110
M  V30 9217 1 9105 9106
M  V30 9218 1 9105 9111
M  V30 9219 1 9105 9112
M  V30 9220 2 9106 9107
M  V30 9221 1 9106 9108
M  V30 END BOND
M  V30 END CTAB
M  END
> <s_m_entry_id>
1

> <b_ppw_prepared>
1

> <s_ff_OPLSVersion>
OPLS4

> <r_ff_Potential_Energy>
19132.168080227

> <r_ff_RMS_Derivative>
0.0499820805221435

> <b_ff_Minimization_Converged>
1

> <r_i_Potential_Energy-S-OPLS>
-1837.24093141124

> <s_m_subgroup_title>
nsp13-core1_lib_top-500_pv

> <s_m_subgroupid>
nsp13-core1_lib_top-500_pv

> <b_m_subgroup_collapsed>
0

$$$$
Core_1_EN300-121096_EN300-121096
                    3D
 Schrodinger Suite 2023-1.
  0  0  0     0  0            999 V3000
M  V30 BEGIN CTAB
M  V30 COUNTS 40 43 0 0 0
M  V30 BEGIN ATOM
M  V30 1 C  -40.1850 37.4578 -1.5618 0
M  V30 2 C  -40.7586 36.3461 -0.6900 0
M  V30 3 N  -41.2041 35.2942 -1.6029 0
M  V30 4 C  -40.7484 35.5820 -2.9668 0
M  V30 5 C  -39.7488 36.7451 -2.8388 0 CFG=1
M  V30 6 N  -39.7541 37.6201 -4.0102 0
M  V30 7 C  -38.9498 38.6848 -4.1913 0
M  V30 8 C  -39.0464 39.3680 -5.4979 0
M  V30 9 C  -38.2457 40.3848 -5.9304 0
M  V30 10 C  -38.7873 40.6606 -7.2200 0
M  V30 11 N  -39.8055 39.8844 -7.5605 0
M  V30 12 N  -39.9515 39.0839 -6.4873 0
M  V30 13 O  -38.3514 41.5739 -8.1266 0
M  V30 14 O  -38.1532 39.0836 -3.3423 0
M  V30 15 C  -41.8060 34.1737 -1.1397 0
M  V30 16 C  -42.3361 33.1519 -2.1074 0
M  V30 17 C  -42.1334 31.7779 -1.8533 0
M  V30 18 C  -42.7407 30.8595 -2.7238 0
M  V30 19 C  -43.5309 31.3322 -3.8022 0
M  V30 20 N  -43.7564 32.6290 -4.0469 0
M  V30 21 C  -43.1661 33.5088 -3.1991 0
M  V30 22 N  -44.0465 30.2642 -4.5210 0
M  V30 23 C  -43.5508 29.1800 -3.9071 0
M  V30 24 N  -42.7914 29.4972 -2.8106 0
M  V30 25 O  -41.9310 33.9542 0.0640 0
M  V30 26 H  -39.3677 37.9912 -1.0745 0
M  V30 27 H  -40.9700 38.1824 -1.7838 0
M  V30 28 H  -39.9840 35.9438 -0.0347 0
M  V30 29 H  -41.5734 36.7113 -0.0627 0
M  V30 30 H  -41.6035 35.8836 -3.5719 0
M  V30 31 H  -40.2870 34.7116 -3.4365 0
M  V30 32 H  -38.7513 36.3306 -2.6921 0
M  V30 33 H  -40.4109 37.3821 -4.7444 0
M  V30 34 H  -37.4195 40.8504 -5.4132 0
M  V30 35 H  -37.4228 41.7234 -8.0104 0
M  V30 36 H  -40.6895 38.3851 -6.4190 0
M  V30 37 H  -41.5528 31.4445 -1.0039 0
M  V30 38 H  -43.4074 34.5452 -3.3827 0
M  V30 39 H  -42.3514 28.8330 -2.1764 0
M  V30 40 H  -43.7551 28.1679 -4.2264 0
M  V30 END ATOM
M  V30 BEGIN BOND
M  V30 1 1 1 2
M  V30 2 1 1 5
M  V30 3 1 1 26
M  V30 4 1 1 27
M  V30 5 1 2 3
M  V30 6 1 2 28
M  V30 7 1 2 29
M  V30 8 1 3 4
M  V30 9 1 3 15
M  V30 10 1 4 5
M  V30 11 1 4 30
M  V30 12 1 4 31
M  V30 13 1 5 6
M  V30 14 1 5 32
M  V30 15 1 6 7
M  V30 16 1 6 33
M  V30 17 2 7 14
M  V30 18 1 7 8
M  V30 19 2 8 9
M  V30 20 1 8 12
M  V30 21 1 9 34
M  V30 22 1 9 10
M  V30 23 2 10 11
M  V30 24 1 10 13
M  V30 25 1 11 12
M  V30 26 1 12 36
M  V30 27 1 13 35
M  V30 28 2 15 25
M  V30 29 1 15 16
M  V30 30 2 16 17
M  V30 31 1 16 21
M  V30 32 1 17 37
M  V30 33 1 17 18
M  V30 34 1 18 24
M  V30 35 2 18 19
M  V30 36 1 19 20
M  V30 37 1 19 22
M  V30 38 2 20 21
M  V30 39 1 21 38
M  V30 40 2 22 23
M  V30 41 1 23 40
M  V30 42 1 23 24
M  V30 43 1 24 39
M  V30 END BOND
M  V30 END CTAB
M  END
> <s_m_entry_id>
2

> <i_f3d_flags>
0

> <r_lp_tautomer_probability>
0.620145543650113

> <r_epik_Ionization_Penalty>
  0.2531

> <r_epik_State_Penalty>
  0.0038

> <i_epik_Tot_Q>
0

> <r_i_docking_score>
-7.18489066771643

> <r_i_glide_gscore>
-7.18869066771643

> <r_i_glide_emodel>
-66.7833325009562

> <s_m_subgroup_title>
nsp13-core1_lib_top-500_pv

> <s_m_subgroupid>
nsp13-core1_lib_top-500_pv

> <b_m_subgroup_collapsed>
0

$$$$
Core_1_EN300-37077_EN300-37077
                    3D
 Schrodinger Suite 2023-1.
  0  0  0     0  0            999 V3000
M  V30 BEGIN CTAB
M  V30 COUNTS 38 41 0 0 0
M  V30 BEGIN ATOM
M  V30 1 C  -40.4488 35.8358 -0.7066 0
M  V30 2 C  -39.7367 37.1817 -0.8013 0
M  V30 3 N  -39.6594 37.5108 -2.2263 0
M  V30 4 C  -40.5075 36.5966 -2.9932 0
M  V30 5 C  -41.3124 35.7940 -1.9577 0 CFG=1
M  V30 6 N  -41.5968 34.4226 -2.3713 0
M  V30 7 C  -42.6556 34.0568 -3.1087 0
M  V30 8 C  -42.8269 32.6107 -3.3343 0
M  V30 9 C  -42.3512 31.5280 -2.5911 0
M  V30 10 C  -42.8483 30.4763 -3.2933 0
M  V30 11 C  -43.5552 30.8820 -4.3166 0
M  V30 12 C  -44.0516 29.7710 -5.0392 0
M  V30 13 C  -43.5515 28.6835 -4.3306 0
M  V30 14 N  -42.8070 29.1163 -3.2134 0
M  V30 15 O  -43.6153 32.2216 -4.4222 0
M  V30 16 O  -43.4411 34.8600 -3.6103 0
M  V30 17 C  -38.9090 38.5515 -2.6649 0
M  V30 18 C  -38.6442 38.7668 -4.1155 0
M  V30 19 C  -37.6077 39.5229 -4.5861 0
M  V30 20 C  -37.7553 39.4318 -5.9994 0
M  V30 21 N  -38.7804 38.6844 -6.3714 0
M  V30 22 N  -39.3307 38.2832 -5.2067 0
M  V30 23 O  -38.3446 39.2960 -1.8612 0
M  V30 24 H  -41.0269 35.7321 0.2134 0
M  V30 25 H  -39.7055 35.0356 -0.7288 0
M  V30 26 H  -40.3151 37.9545 -0.2914 0
M  V30 27 H  -38.7512 37.1380 -0.3338 0
M  V30 28 H  -39.8780 35.9453 -3.6024 0
M  V30 29 H  -41.1906 37.1393 -3.6453 0
M  V30 30 H  -42.2450 36.3246 -1.7452 0
M  V30 31 H  -40.9879 33.6980 -2.0186 0
M  V30 32 H  -41.7431 31.5233 -1.6988 0
M  V30 33 H  -44.6558 29.7518 -5.9350 0
M  V30 34 H  -43.6603 27.6254 -4.5169 0
M  V30 35 H  -42.3513 28.5458 -2.5074 0
M  V30 36 H  -36.8606 40.0540 -4.0147 0
M  V30 37 H  -37.1515 39.8834 -6.7659 0
M  V30 38 H  -40.1708 37.7115 -5.1951 0
M  V30 END ATOM
M  V30 BEGIN BOND
M  V30 1 1 1 2
M  V30 2 1 1 5
M  V30 3 1 1 24
M  V30 4 1 1 25
M  V30 5 1 2 3
M  V30 6 1 2 26
M  V30 7 1 2 27
M  V30 8 1 3 4
M  V30 9 1 3 17
M  V30 10 1 4 5
M  V30 11 1 4 28
M  V30 12 1 4 29
M  V30 13 1 5 6
M  V30 14 1 5 30
M  V30 15 1 6 7
M  V30 16 1 6 31
M  V30 17 1 7 8
M  V30 18 2 7 16
M  V30 19 2 8 9
M  V30 20 1 8 15
M  V30 21 1 9 10
M  V30 22 1 9 32
M  V30 23 2 10 11
M  V30 24 1 10 14
M  V30 25 1 11 12
M  V30 26 1 11 15
M  V30 27 2 12 13
M  V30 28 1 12 33
M  V30 29 1 13 14
M  V30 30 1 13 34
M  V30 31 1 14 35
M  V30 32 1 17 18
M  V30 33 2 17 23
M  V30 34 2 18 19
M  V30 35 1 18 22
M  V30 36 1 19 20
M  V30 37 1 19 36
M  V30 38 2 20 21
M  V30 39 1 20 37
M  V30 40 1 21 22
M  V30 41 1 22 38
M  V30 END BOND
M  V30 END CTAB
M  END
> <s_m_entry_id>
3

> <i_f3d_flags>
0

> <r_lp_tautomer_probability>
0.5

> <r_epik_Ionization_Penalty>
  0.0000

> <r_epik_State_Penalty>
  0.4107

> <i_epik_Tot_Q>
0

> <r_i_docking_score>
-6.76238397761139

> <r_i_glide_gscore>
-7.17308397761139

> <r_i_glide_emodel>
-57.5616035993953

> <s_m_subgroup_title>
nsp13-core1_lib_top-500_pv

> <s_m_subgroupid>
nsp13-core1_lib_top-500_pv

> <b_m_subgroup_collapsed>
0

$$$$
Core_1_EN300-97870_EN300-97870
                    3D
 Schrodinger Suite 2023-1.
  0  0  0     0  0            999 V3000
M  V30 BEGIN CTAB
M  V30 COUNTS 48 50 0 0 0
M  V30 BEGIN ATOM
M  V30 1 C  -44.1759 34.0314 0.2791 0
M  V30 2 C  -44.0146 32.5205 0.3783 0
M  V30 3 N  -44.0562 32.0151 -0.9889 0
M  V30 4 C  -43.8843 33.1162 -1.9375 0
M  V30 5 C  -43.6167 34.3761 -1.0940 0 CFG=1
M  V30 6 N  -44.2591 35.5739 -1.6157 0
M  V30 7 C  -43.9870 36.1549 -2.7908 0
M  V30 8 C  -44.7455 37.4548 -3.0778 0
M  V30 9 C  -43.9493 38.4485 -3.9362 0
M  V30 10 S  -42.5540 39.2254 -3.0256 0
M  V30 11 N  -41.2137 38.2832 -3.5382 0 CFG=2
M  V30 12 C  -39.8667 38.6810 -3.1230 0
M  V30 13 C  -38.9196 38.8193 -4.2758 0
M  V30 14 C  -37.7044 39.4407 -4.3580 0
M  V30 15 C  -37.2893 39.2075 -5.6991 0
M  V30 16 N  -38.1765 38.5411 -6.4078 0
M  V30 17 N  -39.1514 38.2802 -5.5244 0
M  V30 18 O  -42.7113 39.0103 -1.5797 0
M  V30 19 O  -42.3424 40.5809 -3.5527 0
M  V30 20 O  -43.2007 35.6811 -3.6096 0
M  V30 21 C  -44.1940 30.6988 -1.2769 0
M  V30 22 C  -44.0685 30.2881 -2.7035 0
M  V30 23 N  -44.7515 30.7366 -3.7566 0
M  V30 24 C  -44.3113 29.9613 -4.8299 0
M  V30 25 C  -43.3785 29.0493 -4.3945 0
M  V30 26 N  -43.2659 29.2667 -3.0300 0
M  V30 27 O  -44.3505 29.8273 -0.4222 0
M  V30 28 H  -43.6724 34.5592 1.0881 0
M  V30 29 H  -45.2383 34.2731 0.3335 0
M  V30 30 H  -43.0331 32.2852 0.7894 0
M  V30 31 H  -44.7739 32.0708 1.0198 0
M  V30 32 H  -44.7972 33.2245 -2.5241 0
M  V30 33 H  -43.0609 32.9299 -2.6302 0
M  V30 34 H  -42.5388 34.5370 -1.0134 0
M  V30 35 H  -44.9129 36.0379 -1.0050 0
M  V30 36 H  -45.0568 37.9283 -2.1449 0
M  V30 37 H  -45.6612 37.1889 -3.6052 0
M  V30 38 H  -44.6061 39.2473 -4.2761 0
M  V30 39 H  -43.5512 37.9639 -4.8188 0
M  V30 40 H  -41.2872 38.0037 -4.5193 0
M  V30 41 H  -39.4893 37.9336 -2.4237 0
M  V30 42 H  -39.9137 39.6229 -2.5737 0
M  V30 43 H  -37.1772 39.9578 -3.5712 0
M  V30 44 H  -36.3685 39.4847 -6.1857 0
M  V30 45 H  -39.9867 37.7630 -5.7894 0
M  V30 46 H  -44.6989 30.1155 -5.8242 0
M  V30 47 H  -42.8192 28.2859 -4.9149 0
M  V30 48 H  -42.7059 28.7381 -2.3702 0
M  V30 END ATOM
M  V30 BEGIN BOND
M  V30 1 1 1 2
M  V30 2 1 1 5
M  V30 3 1 1 28
M  V30 4 1 1 29
M  V30 5 1 2 3
M  V30 6 1 2 30
M  V30 7 1 2 31
M  V30 8 1 3 4
M  V30 9 1 3 21
M  V30 10 1 4 5
M  V30 11 1 4 32
M  V30 12 1 4 33
M  V30 13 1 5 6
M  V30 14 1 5 34
M  V30 15 1 6 7
M  V30 16 1 6 35
M  V30 17 1 7 8
M  V30 18 2 7 20
M  V30 19 1 8 9
M  V30 20 1 8 36
M  V30 21 1 8 37
M  V30 22 1 9 10
M  V30 23 1 9 38
M  V30 24 1 9 39
M  V30 25 1 10 11
M  V30 26 2 10 18
M  V30 27 2 10 19
M  V30 28 1 11 12
M  V30 29 1 11 40
M  V30 30 1 12 41
M  V30 31 1 12 42
M  V30 32 1 12 13
M  V30 33 1 13 17
M  V30 34 2 13 14
M  V30 35 1 14 15
M  V30 36 1 14 43
M  V30 37 1 15 44
M  V30 38 2 15 16
M  V30 39 1 16 17
M  V30 40 1 17 45
M  V30 41 1 21 22
M  V30 42 2 21 27
M  V30 43 2 22 23
M  V30 44 1 22 26
M  V30 45 1 23 24
M  V30 46 2 24 25
M  V30 47 1 24 46
M  V30 48 1 25 26
M  V30 49 1 25 47
M  V30 50 1 26 48
M  V30 END BOND
M  V30 END CTAB
M  END
> <s_m_entry_id>
4

> <i_f3d_flags>
0

> <r_lp_tautomer_probability>
0.249999999999999

> <r_epik_Ionization_Penalty>
  0.0020

> <r_epik_State_Penalty>
  0.4122

> <i_epik_Tot_Q>
0

> <r_i_docking_score>
-6.7328027480793

> <r_i_glide_gscore>
-7.1450027480793

> <r_i_glide_emodel>
-59.5500042656271

> <s_m_subgroup_title>
nsp13-core1_lib_top-500_pv

> <s_m_subgroupid>
nsp13-core1_lib_top-500_pv

> <b_m_subgroup_collapsed>
0

$$$$
Core_1_EN300-12129_EN300-12129
                    3D
 Schrodinger Suite 2023-1.
  0  0  0     0  0            999 V3000
M  V30 BEGIN CTAB
M  V30 COUNTS 42 45 0 0 0
M  V30 BEGIN ATOM
M  V30 1 C  -41.1944 35.5356 0.2058 0
M  V30 2 C  -40.3819 36.8281 0.2429 0
M  V30 3 N  -40.1500 37.2234 -1.1490 0
M  V30 4 C  -40.9830 36.3898 -2.0245 0
M  V30 5 C  -41.9276 35.5865 -1.1270 0 CFG=1
M  V30 6 N  -42.1894 34.2494 -1.6465 0
M  V30 7 C  -42.7802 33.9704 -2.8178 0
M  V30 8 C  -42.9414 32.5414 -3.1293 0
M  V30 9 C  -42.4314 31.4267 -2.4611 0
M  V30 10 C  -42.8936 30.4129 -3.2370 0
M  V30 11 C  -43.5974 30.8657 -4.2418 0
M  V30 12 C  -44.0643 29.7904 -5.0326 0
M  V30 13 C  -43.5497 28.6713 -4.3884 0
M  V30 14 N  -42.8184 29.0547 -3.2434 0
M  V30 15 O  -43.6877 32.2070 -4.2656 0
M  V30 16 O  -43.1762 34.8260 -3.6100 0
M  V30 17 C  -39.3016 38.2430 -1.4634 0
M  V30 18 C  -38.9821 38.5798 -2.8922 0
M  V30 19 C  -38.1098 39.7932 -3.1952 0
M  V30 20 C  -37.3493 39.6689 -4.5395 0
M  V30 21 C  -38.1836 38.9698 -5.6147 0
M  V30 22 N  -39.1513 38.1498 -5.1749 0
M  V30 23 N  -39.4402 37.8674 -3.8702 0
M  V30 24 O  -37.9524 39.1277 -6.8101 0
M  V30 25 O  -38.7614 38.8986 -0.5724 0
M  V30 26 H  -41.8647 35.4397 1.0607 0
M  V30 27 H  -40.5068 34.6878 0.2313 0
M  V30 28 H  -40.9427 37.6175 0.7473 0
M  V30 29 H  -39.4453 36.6852 0.7857 0
M  V30 30 H  -40.3309 35.7217 -2.5908 0
M  V30 31 H  -41.5606 36.9867 -2.7343 0
M  V30 32 H  -42.8667 36.1268 -1.0016 0
M  V30 33 H  -41.9126 33.4727 -1.0648 0
M  V30 34 H  -41.8242 31.3787 -1.5676 0
M  V30 35 H  -44.6658 29.8124 -5.9311 0
M  V30 36 H  -43.6388 27.6267 -4.6377 0
M  V30 37 H  -42.3517 28.4593 -2.5683 0
M  V30 38 H  -38.7371 40.6860 -3.2049 0
M  V30 39 H  -37.3749 39.9473 -2.4034 0
M  V30 40 H  -37.0353 40.6536 -4.8902 0
M  V30 41 H  -36.4389 39.0825 -4.3966 0
M  V30 42 H  -39.7284 37.6481 -5.8397 0
M  V30 END ATOM
M  V30 BEGIN BOND
M  V30 1 1 1 2
M  V30 2 1 1 5
M  V30 3 1 1 26
M  V30 4 1 1 27
M  V30 5 1 2 3
M  V30 6 1 2 28
M  V30 7 1 2 29
M  V30 8 1 3 4
M  V30 9 1 3 17
M  V30 10 1 4 5
M  V30 11 1 4 30
M  V30 12 1 4 31
M  V30 13 1 5 6
M  V30 14 1 5 32
M  V30 15 1 6 7
M  V30 16 1 6 33
M  V30 17 1 7 8
M  V30 18 2 7 16
M  V30 19 2 8 9
M  V30 20 1 8 15
M  V30 21 1 9 10
M  V30 22 1 9 34
M  V30 23 2 10 11
M  V30 24 1 10 14
M  V30 25 1 11 12
M  V30 26 1 11 15
M  V30 27 2 12 13
M  V30 28 1 12 35
M  V30 29 1 13 14
M  V30 30 1 13 36
M  V30 31 1 14 37
M  V30 32 1 17 18
M  V30 33 2 17 25
M  V30 34 1 18 19
M  V30 35 2 18 23
M  V30 36 1 19 20
M  V30 37 1 19 38
M  V30 38 1 19 39
M  V30 39 1 20 21
M  V30 40 1 20 40
M  V30 41 1 20 41
M  V30 42 1 21 22
M  V30 43 2 21 24
M  V30 44 1 22 23
M  V30 45 1 22 42
M  V30 END BOND
M  V30 END CTAB
M  END
> <s_m_entry_id>
5

> <i_f3d_flags>
0

> <r_lp_tautomer_probability>
1

> <r_epik_Ionization_Penalty>
  0.0000

> <r_epik_State_Penalty>
  0.0000

> <i_epik_Tot_Q>
0

> <r_i_docking_score>
-6.7180553416576

> <r_i_glide_gscore>
-6.7180553416576

> <r_i_glide_emodel>
-57.5990321727778

> <s_m_subgroup_title>
nsp13-core1_lib_top-500_pv

> <s_m_subgroupid>
nsp13-core1_lib_top-500_pv

> <b_m_subgroup_collapsed>
0

$$$$
Core_1_EN300-6766359_EN300-6766359
                    3D
 Schrodinger Suite 2023-1.
  0  0  0     0  0            999 V3000
M  V30 BEGIN CTAB
M  V30 COUNTS 43 47 0 0 0
M  V30 BEGIN ATOM
M  V30 1 C  -39.7974 35.3147 -3.4763 0
M  V30 2 C  -39.5513 36.7997 -3.7041 0
M  V30 3 N  -40.5460 37.5296 -2.9213 0
M  V30 4 C  -41.2926 36.6128 -2.0548 0
M  V30 5 C  -40.6139 35.2376 -2.1894 0 CFG=1
M  V30 6 N  -41.4908 34.0636 -2.1758 0
M  V30 7 C  -42.5423 33.8155 -2.9748 0
M  V30 8 C  -42.8633 32.3947 -3.1777 0
M  V30 9 C  -42.4675 31.2760 -2.4432 0
M  V30 10 C  -42.9695 30.2674 -3.2015 0
M  V30 11 C  -43.6151 30.7265 -4.2420 0
M  V30 12 C  -44.0344 29.6579 -5.0689 0
M  V30 13 C  -43.5514 28.5345 -4.4047 0
M  V30 14 N  -42.8885 28.9098 -3.2151 0
M  V30 15 O  -43.6267 32.0696 -4.3056 0
M  V30 16 O  -43.1432 34.6783 -3.6102 0
M  V30 17 C  -40.7375 38.8718 -2.8879 0
M  V30 18 C  -39.9311 39.8496 -3.7794 0 CFG=1
M  V30 19 C  -38.4570 39.9904 -3.3700 0 CFG=2
M  V30 20 C  -37.5523 41.0475 -3.9704 0
M  V30 21 C  -37.6136 39.6637 -4.5704 0 CFG=2
M  V30 22 C  -38.5852 39.3916 -5.6579 0
M  V30 23 N  -39.8359 39.4841 -5.1882 0
M  V30 24 O  -38.2913 39.0845 -6.8102 0
M  V30 25 O  -41.5785 39.3688 -2.1385 0
M  V30 26 H  -38.8707 34.7436 -3.4254 0
M  V30 27 H  -40.3628 34.9300 -4.3266 0
M  V30 28 H  -38.5621 37.0845 -3.3569 0
M  V30 29 H  -39.6138 36.9917 -4.7724 0
M  V30 30 H  -42.3371 36.6198 -2.3617 0
M  V30 31 H  -41.2659 36.9461 -1.0157 0
M  V30 32 H  -39.9151 35.1311 -1.3577 0
M  V30 33 H  -41.1226 33.2649 -1.6800 0
M  V30 34 H  -41.8656 31.2170 -1.5480 0
M  V30 35 H  -44.5644 29.6861 -6.0097 0
M  V30 36 H  -43.6157 27.4911 -4.6740 0
M  V30 37 H  -42.4327 28.3114 -2.5321 0
M  V30 38 H  -40.4089 40.8285 -3.7264 0
M  V30 39 H  -38.1641 39.5598 -2.4138 0
M  V30 40 H  -38.0284 41.8663 -4.5075 0
M  V30 41 H  -36.6437 41.3121 -3.4338 0
M  V30 42 H  -36.7883 38.9699 -4.4258 0
M  V30 43 H  -40.6529 39.2479 -5.7343 0
M  V30 END ATOM
M  V30 BEGIN BOND
M  V30 1 1 1 2
M  V30 2 1 1 5
M  V30 3 1 1 26
M  V30 4 1 1 27
M  V30 5 1 2 3
M  V30 6 1 2 28
M  V30 7 1 2 29
M  V30 8 1 3 4
M  V30 9 1 3 17
M  V30 10 1 4 5
M  V30 11 1 4 30
M  V30 12 1 4 31
M  V30 13 1 5 6
M  V30 14 1 5 32
M  V30 15 1 6 7
M  V30 16 1 6 33
M  V30 17 1 7 8
M  V30 18 2 7 16
M  V30 19 2 8 9
M  V30 20 1 8 15
M  V30 21 1 9 10
M  V30 22 1 9 34
M  V30 23 2 10 11
M  V30 24 1 10 14
M  V30 25 1 11 12
M  V30 26 1 11 15
M  V30 27 2 12 13
M  V30 28 1 12 35
M  V30 29 1 13 14
M  V30 30 1 13 36
M  V30 31 1 14 37
M  V30 32 1 17 18
M  V30 33 2 17 25
M  V30 34 1 18 19
M  V30 35 1 18 23
M  V30 36 1 18 38
M  V30 37 1 19 20
M  V30 38 1 19 21
M  V30 39 1 19 39
M  V30 40 1 20 21
M  V30 41 1 20 40
M  V30 42 1 20 41
M  V30 43 1 21 22
M  V30 44 1 21 42
M  V30 45 1 22 23
M  V30 46 2 22 24
M  V30 47 1 23 43
M  V30 END BOND
M  V30 END CTAB
M  END
> <s_m_entry_id>
6

> <i_f3d_flags>
0

> <r_lp_tautomer_probability>
1

> <r_epik_Ionization_Penalty>
  0.0000

> <r_epik_State_Penalty>
  0.0000

> <i_epik_Tot_Q>
0

> <r_i_docking_score>
-6.68717501087068

> <r_i_glide_gscore>
-6.68717501087068

> <r_i_glide_emodel>
-55.837882666653

> <s_m_subgroup_title>
nsp13-core1_lib_top-500_pv

> <s_m_subgroupid>
nsp13-core1_lib_top-500_pv

> <b_m_subgroup_collapsed>
0

$$$$
Core_1_EN300-36468_EN300-36468
                    3D
 Schrodinger Suite 2023-1.
  0  0  0     0  0            999 V3000
M  V30 BEGIN CTAB
M  V30 COUNTS 42 44 0 0 0
M  V30 BEGIN ATOM
M  V30 1 C  -40.0396 37.2557 -1.6885 0
M  V30 2 C  -40.6086 36.0602 -0.9208 0
M  V30 3 N  -41.0596 35.1147 -1.9402 0
M  V30 4 C  -40.5277 35.4938 -3.2498 0
M  V30 5 C  -39.5513 36.6450 -2.9976 0 CFG=1
M  V30 6 N  -39.5515 37.5614 -4.1314 0
M  V30 7 C  -38.8090 38.6667 -4.2945 0
M  V30 8 C  -38.9819 39.3554 -5.5889 0
M  V30 9 C  -38.1917 40.3594 -6.0616 0
M  V30 10 C  -38.7846 40.6349 -7.3262 0
M  V30 11 N  -39.8414 39.8842 -7.6090 0
M  V30 12 N  -39.9514 39.0840 -6.5269 0
M  V30 13 O  -38.3514 41.5173 -8.2658 0
M  V30 14 O  -38.0095 39.0838 -3.4558 0
M  V30 15 C  -41.8490 34.0534 -1.6530 0
M  V30 16 C  -42.4962 33.2736 -2.8292 0
M  V30 17 N  -42.4912 31.9360 -2.6860 0
M  V30 18 C  -43.1102 30.9809 -3.5355 0
M  V30 19 C  -42.5612 29.6834 -3.6068 0
M  V30 20 C  -43.1524 28.7097 -4.4361 0
M  V30 21 C  -44.3066 29.0112 -5.1781 0
M  V30 22 C  -44.8870 30.2845 -5.0686 0
M  V30 23 C  -44.2892 31.2699 -4.2645 0
M  V30 24 O  -42.9761 33.8805 -3.7901 0
M  V30 25 O  -42.1184 33.7091 -0.5021 0
M  V30 26 H  -40.8360 37.9762 -1.8829 0
M  V30 27 H  -39.2481 37.7706 -1.1435 0
M  V30 28 H  -41.4185 36.3635 -0.2546 0
M  V30 29 H  -39.8323 35.5869 -0.3168 0
M  V30 30 H  -40.0359 34.6573 -3.7504 0
M  V30 31 H  -41.3531 35.8313 -3.8782 0
M  V30 32 H  -38.5580 36.2299 -2.8378 0
M  V30 33 H  -40.1822 37.3149 -4.8825 0
M  V30 34 H  -37.3264 40.8067 -5.5918 0
M  V30 35 H  -37.4225 41.6684 -8.1634 0
M  V30 36 H  -40.6977 38.3991 -6.4277 0
M  V30 37 H  -41.9907 31.5767 -1.8848 0
M  V30 38 H  -41.6776 29.4264 -3.0387 0
M  V30 39 H  -42.7416 27.7176 -4.5030 0
M  V30 40 H  -44.7512 28.2588 -5.8122 0
M  V30 41 H  -45.7911 30.5142 -5.6102 0
M  V30 42 H  -44.7513 32.2435 -4.2157 0
M  V30 END ATOM
M  V30 BEGIN BOND
M  V30 1 1 1 2
M  V30 2 1 1 5
M  V30 3 1 1 26
M  V30 4 1 1 27
M  V30 5 1 2 3
M  V30 6 1 2 28
M  V30 7 1 2 29
M  V30 8 1 3 4
M  V30 9 1 3 15
M  V30 10 1 4 5
M  V30 11 1 4 30
M  V30 12 1 4 31
M  V30 13 1 5 6
M  V30 14 1 5 32
M  V30 15 1 6 7
M  V30 16 1 6 33
M  V30 17 2 7 14
M  V30 18 1 7 8
M  V30 19 2 8 9
M  V30 20 1 8 12
M  V30 21 1 9 34
M  V30 22 1 9 10
M  V30 23 2 10 11
M  V30 24 1 10 13
M  V30 25 1 11 12
M  V30 26 1 12 36
M  V30 27 1 13 35
M  V30 28 1 15 16
M  V30 29 2 15 25
M  V30 30 1 16 17
M  V30 31 2 16 24
M  V30 32 1 17 18
M  V30 33 1 17 37
M  V30 34 2 18 19
M  V30 35 1 18 23
M  V30 36 1 19 20
M  V30 37 1 19 38
M  V30 38 2 20 21
M  V30 39 1 20 39
M  V30 40 1 21 22
M  V30 41 1 21 40
M  V30 42 2 22 23
M  V30 43 1 22 41
M  V30 44 1 23 42
M  V30 END BOND
M  V30 END CTAB
M  END
> <s_m_entry_id>
7

> <i_f3d_flags>
0

> <r_lp_tautomer_probability>
0.966084542645576

> <r_epik_Ionization_Penalty>
  0.2484

> <r_epik_State_Penalty>
  0.3593

> <i_epik_Tot_Q>
0

> <r_i_docking_score>
-6.6575445719178

> <r_i_glide_gscore>
-7.0168445719178

> <r_i_glide_emodel>
-64.3317973857974

> <s_m_subgroup_title>
nsp13-core1_lib_top-500_pv

> <s_m_subgroupid>
nsp13-core1_lib_top-500_pv

> <b_m_subgroup_collapsed>
0

$$$$
Core_1_EN300-31764_EN300-31764
                    3D
 Schrodinger Suite 2023-1.
  0  0  0     0  0            999 V3000
M  V30 BEGIN CTAB
M  V30 COUNTS 42 44 0 0 0
M  V30 BEGIN ATOM
M  V30 1 C  -37.6946 39.0794 -5.8045 0
M  V30 2 S  -39.1353 40.1384 -6.2129 0
M  V30 3 N  -40.3792 39.4845 -5.2217 0 CFG=2
M  V30 4 C  -40.3534 39.7236 -3.7765 0
M  V30 5 C  -41.2327 38.7871 -2.9423 0
M  V30 6 N  -40.8051 37.5264 -2.7235 0
M  V30 7 C  -39.6255 36.9226 -3.3338 0
M  V30 8 C  -39.7327 35.4246 -3.0943 0
M  V30 9 C  -40.6942 35.2645 -1.9126 0 CFG=1
M  V30 10 C  -41.4787 36.5906 -1.8250 0
M  V30 11 N  -41.5038 34.0480 -2.0313 0
M  V30 12 C  -42.4717 33.8003 -2.9296 0
M  V30 13 C  -42.7904 32.3834 -3.1604 0
M  V30 14 C  -42.4024 31.2526 -2.4405 0
M  V30 15 C  -42.9151 30.2587 -3.2105 0
M  V30 16 C  -43.5576 30.7351 -4.2444 0
M  V30 17 C  -44.0108 29.6783 -5.0691 0
M  V30 18 C  -43.5511 28.5421 -4.4105 0
M  V30 19 N  -42.8653 28.9005 -3.2302 0
M  V30 20 O  -43.5527 32.0782 -4.2955 0
M  V30 21 O  -43.0132 34.6678 -3.6103 0
M  V30 22 O  -42.2744 39.2250 -2.4556 0
M  V30 23 O  -38.8633 41.5069 -5.7504 0
M  V30 24 O  -39.5070 39.8833 -7.6109 0
M  V30 25 H  -36.8419 39.3837 -6.4109 0
M  V30 26 H  -37.9484 38.0417 -6.0101 0
M  V30 27 H  -37.4367 39.1951 -4.7533 0
M  V30 28 H  -40.7653 38.5855 -5.5351 0
M  V30 29 H  -39.3281 39.6609 -3.4135 0
M  V30 30 H  -40.6659 40.7527 -3.5967 0
M  V30 31 H  -39.5515 37.1211 -4.4018 0
M  V30 32 H  -38.7392 37.3248 -2.8460 0
M  V30 33 H  -40.1331 34.9585 -3.9956 0
M  V30 34 H  -38.7564 34.9796 -2.9080 0
M  V30 35 H  -40.0968 35.1700 -1.0045 0
M  V30 36 H  -41.4557 36.9765 -0.8047 0
M  V30 37 H  -42.5293 36.5081 -2.0984 0
M  V30 38 H  -41.1711 33.2539 -1.5045 0
M  V30 39 H  -41.8059 31.1778 -1.5429 0
M  V30 40 H  -44.5513 29.7225 -6.0034 0
M  V30 41 H  -43.6440 27.5001 -4.6799 0
M  V30 42 H  -42.4231 28.2896 -2.5492 0
M  V30 END ATOM
M  V30 BEGIN BOND
M  V30 1 1 1 2
M  V30 2 1 1 25
M  V30 3 1 1 26
M  V30 4 1 1 27
M  V30 5 1 2 3
M  V30 6 2 2 23
M  V30 7 2 2 24
M  V30 8 1 3 4
M  V30 9 1 3 28
M  V30 10 1 4 5
M  V30 11 1 4 29
M  V30 12 1 4 30
M  V30 13 1 5 6
M  V30 14 2 5 22
M  V30 15 1 6 7
M  V30 16 1 6 10
M  V30 17 1 7 8
M  V30 18 1 7 31
M  V30 19 1 7 32
M  V30 20 1 8 9
M  V30 21 1 8 33
M  V30 22 1 8 34
M  V30 23 1 9 10
M  V30 24 1 9 11
M  V30 25 1 9 35
M  V30 26 1 10 36
M  V30 27 1 10 37
M  V30 28 1 11 12
M  V30 29 1 11 38
M  V30 30 1 12 13
M  V30 31 2 12 21
M  V30 32 2 13 14
M  V30 33 1 13 20
M  V30 34 1 14 15
M  V30 35 1 14 39
M  V30 36 2 15 16
M  V30 37 1 15 19
M  V30 38 1 16 17
M  V30 39 1 16 20
M  V30 40 2 17 18
M  V30 41 1 17 40
M  V30 42 1 18 19
M  V30 43 1 18 41
M  V30 44 1 19 42
M  V30 END BOND
M  V30 END CTAB
M  END
> <s_m_entry_id>
8

> <i_f3d_flags>
0

> <r_lp_tautomer_probability>
1

> <r_epik_Ionization_Penalty>
  0.0000

> <r_epik_State_Penalty>
  0.0000

> <i_epik_Tot_Q>
0

> <r_i_docking_score>
-6.54611896050412

> <r_i_glide_gscore>
-6.54611896050412

> <r_i_glide_emodel>
-54.6127832951654

> <s_m_subgroup_title>
nsp13-core1_lib_top-500_pv

> <s_m_subgroupid>
nsp13-core1_lib_top-500_pv

> <b_m_subgroup_collapsed>
0

$$$$
Core_1_EN300-1472354_EN300-1472354
                    3D
 Schrodinger Suite 2023-1.
  0  0  0     0  0            999 V3000
M  V30 BEGIN CTAB
M  V30 COUNTS 43 46 0 0 0
M  V30 BEGIN ATOM
M  V30 1 C  -40.5562 36.8072 -1.3831 0
M  V30 2 C  -41.2665 35.6359 -0.7107 0
M  V30 3 N  -41.7258 34.7654 -1.7905 0
M  V30 4 C  -41.1121 35.1665 -3.0605 0
M  V30 5 C  -40.0638 36.2388 -2.7146 0 CFG=1
M  V30 6 N  -39.9512 37.2410 -3.7745 0
M  V30 7 C  -39.1513 38.3208 -3.7593 0
M  V30 8 C  -39.0497 39.0840 -5.0222 0
M  V30 9 C  -38.4422 40.2980 -5.1691 0
M  V30 10 C  -38.6909 40.5919 -6.5410 0
M  V30 11 N  -39.3468 39.6397 -7.1890 0
M  V30 12 N  -39.5514 38.7012 -6.2440 0
M  V30 13 O  -38.3513 41.7136 -7.2326 0
M  V30 14 O  -38.5218 38.6838 -2.7657 0
M  V30 15 C  -42.5498 33.7143 -1.5687 0
M  V30 16 C  -43.0604 32.9213 -2.7146 0
M  V30 17 C  -43.7050 33.4836 -3.7858 0
M  V30 18 O  -44.1390 32.5358 -4.6691 0
M  V30 19 C  -43.7687 31.3467 -4.1290 0
M  V30 20 C  -44.1013 30.0669 -4.8102 0
M  V30 21 C  -43.2280 28.9294 -4.2289 0
M  V30 22 N  -42.8756 29.1197 -2.8103 0
M  V30 23 C  -42.7515 30.3024 -2.1778 0
M  V30 24 C  -43.1361 31.5140 -2.9365 0
M  V30 25 O  -42.3514 30.3671 -1.0225 0
M  V30 26 O  -42.8980 33.4106 -0.4297 0
M  V30 27 H  -39.7482 37.2106 -0.7718 0
M  V30 28 H  -41.2747 37.6108 -1.5572 0
M  V30 29 H  -40.5703 35.0774 -0.0814 0
M  V30 30 H  -42.0895 35.9791 -0.0805 0
M  V30 31 H  -41.8861 35.5915 -3.7006 0
M  V30 32 H  -40.6590 34.3220 -3.5811 0
M  V30 33 H  -39.0956 35.7552 -2.5625 0
M  V30 34 H  -40.5063 37.0834 -4.6082 0
M  V30 35 H  -37.9409 40.8863 -4.4144 0
M  V30 36 H  -37.7413 42.2581 -6.7627 0
M  V30 37 H  -40.1308 37.8831 -6.4103 0
M  V30 38 H  -43.9549 34.5013 -4.0485 0
M  V30 39 H  -45.1535 29.8402 -4.6441 0
M  V30 40 H  -43.9647 30.1421 -5.8878 0
M  V30 41 H  -43.6968 27.9569 -4.3846 0
M  V30 42 H  -42.2839 28.8997 -4.7740 0
M  V30 43 H  -42.6337 28.3026 -2.2554 0
M  V30 END ATOM
M  V30 BEGIN BOND
M  V30 1 1 1 2
M  V30 2 1 1 5
M  V30 3 1 1 27
M  V30 4 1 1 28
M  V30 5 1 2 3
M  V30 6 1 2 29
M  V30 7 1 2 30
M  V30 8 1 3 4
M  V30 9 1 3 15
M  V30 10 1 4 5
M  V30 11 1 4 31
M  V30 12 1 4 32
M  V30 13 1 5 6
M  V30 14 1 5 33
M  V30 15 1 6 7
M  V30 16 1 6 34
M  V30 17 2 7 14
M  V30 18 1 7 8
M  V30 19 2 8 9
M  V30 20 1 8 12
M  V30 21 1 9 35
M  V30 22 1 9 10
M  V30 23 2 10 11
M  V30 24 1 10 13
M  V30 25 1 11 12
M  V30 26 1 12 37
M  V30 27 1 13 36
M  V30 28 1 15 16
M  V30 29 2 15 26
M  V30 30 2 16 17
M  V30 31 1 16 24
M  V30 32 1 17 18
M  V30 33 1 17 38
M  V30 34 1 18 19
M  V30 35 1 19 20
M  V30 36 2 19 24
M  V30 37 1 20 21
M  V30 38 1 20 39
M  V30 39 1 20 40
M  V30 40 1 21 22
M  V30 41 1 21 41
M  V30 42 1 21 42
M  V30 43 1 22 23
M  V30 44 1 22 43
M  V30 45 1 23 24
M  V30 46 2 23 25
M  V30 END BOND
M  V30 END CTAB
M  END
> <s_m_entry_id>
9

> <i_f3d_flags>
0

> <r_lp_tautomer_probability>
0.966084542645576

> <r_epik_Ionization_Penalty>
  0.2473

> <r_epik_State_Penalty>
  0.3529

> <i_epik_Tot_Q>
0

> <r_i_docking_score>
-6.50608669939612

> <r_i_glide_gscore>
-6.85898669939612

> <r_i_glide_emodel>
-60.8328660244458

> <s_m_subgroup_title>
nsp13-core1_lib_top-500_pv

> <s_m_subgroupid>
nsp13-core1_lib_top-500_pv

> <b_m_subgroup_collapsed>
0

$$$$
Core_1_EN300-152046_EN300-152046
                    3D
 Schrodinger Suite 2023-1.
  0  0  0     0  0            999 V3000
M  V30 BEGIN CTAB
M  V30 COUNTS 42 45 0 0 0
M  V30 BEGIN ATOM
M  V30 1 C  -40.2159 35.6786 -0.7351 0
M  V30 2 C  -39.4299 36.9814 -0.8743 0
M  V30 3 N  -39.5265 37.3824 -2.2792 0
M  V30 4 C  -40.4375 36.4897 -2.9982 0
M  V30 5 C  -41.1795 35.6910 -1.9163 0 CFG=1
M  V30 6 N  -41.5274 34.3357 -2.3292 0
M  V30 7 C  -42.5836 34.0148 -3.0877 0
M  V30 8 C  -42.8022 32.5768 -3.3169 0
M  V30 9 C  -42.3516 31.4817 -2.5796 0
M  V30 10 C  -42.8535 30.4439 -3.2972 0
M  V30 11 C  -43.5506 30.8683 -4.3186 0
M  V30 12 C  -44.0542 29.7713 -5.0577 0
M  V30 13 C  -43.5517 28.6699 -4.3704 0
M  V30 14 N  -42.8135 29.0840 -3.2422 0
M  V30 15 O  -43.5958 32.2094 -4.4103 0
M  V30 16 O  -43.3209 34.8489 -3.6086 0
M  V30 17 C  -38.9519 38.5203 -2.7372 0
M  V30 18 C  -39.0278 38.8872 -4.1708 0
M  V30 19 C  -39.2118 40.1674 -4.7638 0
M  V30 20 C  -39.1084 39.9985 -6.1157 0
M  V30 21 C  -39.2211 40.9450 -7.2650 0
M  V30 22 O  -38.3551 40.6245 -8.3304 0
M  V30 23 O  -38.8547 38.6901 -6.4086 0
M  V30 24 C  -38.7980 38.0323 -5.2153 0
M  V30 25 O  -38.3675 39.2834 -1.9689 0
M  V30 26 H  -40.7282 35.5986 0.2253 0
M  V30 27 H  -39.5270 34.8369 -0.8126 0
M  V30 28 H  -39.8793 37.7569 -0.2503 0
M  V30 29 H  -38.3895 36.8580 -0.5635 0
M  V30 30 H  -39.8552 35.8314 -3.6432 0
M  V30 31 H  -41.1455 37.0427 -3.6140 0
M  V30 32 H  -42.0782 36.2376 -1.6232 0
M  V30 33 H  -40.9618 33.5838 -1.9647 0
M  V30 34 H  -41.7386 31.4587 -1.6927 0
M  V30 35 H  -44.6578 29.7681 -5.9538 0
M  V30 36 H  -43.6676 27.6156 -4.5753 0
M  V30 37 H  -42.3535 28.4991 -2.5508 0
M  V30 38 H  -39.3935 41.1023 -4.2559 0
M  V30 39 H  -40.2448 40.9460 -7.6393 0
M  V30 40 H  -39.0061 41.9623 -6.9329 0
M  V30 41 H  -37.4499 40.6841 -8.0276 0
M  V30 42 H  -38.5854 36.9758 -5.2904 0
M  V30 END ATOM
M  V30 BEGIN BOND
M  V30 1 1 1 2
M  V30 2 1 1 5
M  V30 3 1 1 26
M  V30 4 1 1 27
M  V30 5 1 2 3
M  V30 6 1 2 28
M  V30 7 1 2 29
M  V30 8 1 3 4
M  V30 9 1 3 17
M  V30 10 1 4 5
M  V30 11 1 4 30
M  V30 12 1 4 31
M  V30 13 1 5 6
M  V30 14 1 5 32
M  V30 15 1 6 7
M  V30 16 1 6 33
M  V30 17 1 7 8
M  V30 18 2 7 16
M  V30 19 2 8 9
M  V30 20 1 8 15
M  V30 21 1 9 10
M  V30 22 1 9 34
M  V30 23 2 10 11
M  V30 24 1 10 14
M  V30 25 1 11 12
M  V30 26 1 11 15
M  V30 27 2 12 13
M  V30 28 1 12 35
M  V30 29 1 13 14
M  V30 30 1 13 36
M  V30 31 1 14 37
M  V30 32 1 17 18
M  V30 33 2 17 25
M  V30 34 1 18 19
M  V30 35 2 18 24
M  V30 36 2 19 20
M  V30 37 1 19 38
M  V30 38 1 20 21
M  V30 39 1 20 23
M  V30 40 1 21 22
M  V30 41 1 21 39
M  V30 42 1 21 40
M  V30 43 1 22 41
M  V30 44 1 23 24
M  V30 45 1 24 42
M  V30 END BOND
M  V30 END CTAB
M  END
> <s_m_entry_id>
10

> <i_f3d_flags>
0

> <r_lp_tautomer_probability>
1

> <r_epik_Ionization_Penalty>
  0.0000

> <r_epik_State_Penalty>
  0.0000

> <i_epik_Tot_Q>
0

> <r_i_docking_score>
-6.43077550638379

> <r_i_glide_gscore>
-6.43077550638379

> <r_i_glide_emodel>
-57.8045717712878

> <s_m_subgroup_title>
nsp13-core1_lib_top-500_pv

> <s_m_subgroupid>
nsp13-core1_lib_top-500_pv

> <b_m_subgroup_collapsed>
0

$$$$
Core_1_EN300-17352_EN300-17352
                    3D
 Schrodinger Suite 2023-1.
  0  0  0     0  0            999 V3000
M  V30 BEGIN CTAB
M  V30 COUNTS 41 44 0 0 0
M  V30 BEGIN ATOM
M  V30 1 C  -40.0315 37.4942 -1.5557 0
M  V30 2 C  -40.5961 36.3815 -0.6758 0
M  V30 3 N  -41.0673 35.3389 -1.5864 0
M  V30 4 C  -40.6008 35.6106 -2.9487 0
M  V30 5 C  -39.5983 36.7730 -2.8280 0 CFG=1
M  V30 6 N  -39.6163 37.6312 -4.0105 0
M  V30 7 C  -38.8127 38.6847 -4.2449 0
M  V30 8 C  -38.9847 39.3571 -5.5510 0
M  V30 9 C  -38.1895 40.3569 -6.0268 0
M  V30 10 C  -38.7824 40.6346 -7.2922 0
M  V30 11 N  -39.8379 39.8840 -7.5738 0
M  V30 12 N  -39.9507 39.0839 -6.4934 0
M  V30 13 O  -38.3515 41.5172 -8.2318 0
M  V30 14 O  -37.9595 39.0843 -3.4502 0
M  V30 15 C  -41.7090 34.2374 -1.1314 0
M  V30 16 C  -42.2894 33.2523 -2.1141 0
M  V30 17 C  -43.1146 33.6800 -3.1825 0
M  V30 18 C  -43.7260 32.7441 -4.0450 0
M  V30 19 C  -43.5421 31.3584 -3.8447 0
M  V30 20 C  -42.7296 30.9396 -2.7491 0
M  V30 21 C  -42.1148 31.8669 -1.8897 0
M  V30 22 N  -42.7716 29.5544 -2.8096 0
M  V30 23 C  -43.5304 29.2498 -3.8743 0
M  V30 24 N  -44.0546 30.2754 -4.5438 0
M  V30 25 O  -41.8350 34.0108 0.0708 0
M  V30 26 H  -39.2146 38.0356 -1.0766 0
M  V30 27 H  -40.8222 38.2138 -1.7767 0
M  V30 28 H  -39.8129 35.9692 -0.0372 0
M  V30 29 H  -41.3955 36.7502 -0.0303 0
M  V30 30 H  -41.4484 35.9097 -3.5653 0
M  V30 31 H  -40.1397 34.7317 -3.4028 0
M  V30 32 H  -38.6036 36.3599 -2.6757 0
M  V30 33 H  -40.2911 37.3897 -4.7239 0
M  V30 34 H  -37.3265 40.8049 -5.5553 0
M  V30 35 H  -37.4179 41.6543 -8.1413 0
M  V30 36 H  -40.6910 38.3897 -6.4100 0
M  V30 37 H  -43.3160 34.7326 -3.3233 0
M  V30 38 H  -44.3511 33.0830 -4.8558 0
M  V30 39 H  -41.5355 31.5176 -1.0462 0
M  V30 40 H  -43.7231 28.2265 -4.1630 0
M  V30 41 H  -42.3522 28.8787 -2.1780 0
M  V30 END ATOM
M  V30 BEGIN BOND
M  V30 1 1 1 2
M  V30 2 1 1 5
M  V30 3 1 1 26
M  V30 4 1 1 27
M  V30 5 1 2 3
M  V30 6 1 2 28
M  V30 7 1 2 29
M  V30 8 1 3 4
M  V30 9 1 3 15
M  V30 10 1 4 5
M  V30 11 1 4 30
M  V30 12 1 4 31
M  V30 13 1 5 6
M  V30 14 1 5 32
M  V30 15 1 6 7
M  V30 16 1 6 33
M  V30 17 2 7 14
M  V30 18 1 7 8
M  V30 19 2 8 9
M  V30 20 1 8 12
M  V30 21 1 9 34
M  V30 22 1 9 10
M  V30 23 2 10 11
M  V30 24 1 10 13
M  V30 25 1 11 12
M  V30 26 1 12 36
M  V30 27 1 13 35
M  V30 28 1 15 16
M  V30 29 2 15 25
M  V30 30 2 16 17
M  V30 31 1 16 21
M  V30 32 1 17 18
M  V30 33 1 17 37
M  V30 34 2 18 19
M  V30 35 1 18 38
M  V30 36 1 19 20
M  V30 37 1 19 24
M  V30 38 2 20 21
M  V30 39 1 20 22
M  V30 40 1 21 39
M  V30 41 1 22 23
M  V30 42 1 22 41
M  V30 43 2 23 24
M  V30 44 1 23 40
M  V30 END BOND
M  V30 END CTAB
M  END
> <s_m_entry_id>
11

> <i_f3d_flags>
0

> <r_epik_Ionization_Penalty>
  0.2692

> <r_epik_State_Penalty>
  0.7877

> <i_epik_Tot_Q>
0

> <r_i_docking_score>
-6.39941892502083

> <r_i_glide_gscore>
-7.18711892502083

> <r_i_glide_emodel>
-64.4968537993933

> <s_m_subgroup_title>
nsp13-core1_lib_top-500_pv

> <s_m_subgroupid>
nsp13-core1_lib_top-500_pv

> <b_m_subgroup_collapsed>
0

$$$$
Core_1_EN300-46374751_EN300-46374751
                    3D
 Schrodinger Suite 2023-1.
  0  0  0     0  0            999 V3000
M  V30 BEGIN CTAB
M  V30 COUNTS 45 49 0 0 0
M  V30 BEGIN ATOM
M  V30 1 C  -38.7335 41.2722 -7.9631 0
M  V30 2 N  -38.7676 41.1341 -6.5211 0
M  V30 3 C  -38.8176 42.0783 -5.4783 0
M  V30 4 C  -38.8655 41.3289 -4.3193 0
M  V30 5 N  -38.8450 40.0077 -4.6169 0
M  V30 6 C  -38.8740 38.7181 -4.1066 0
M  V30 7 C  -38.7788 37.9263 -5.2301 0
M  V30 8 N  -38.7200 38.6736 -6.4102 0
M  V30 9 C  -38.7723 39.8981 -5.9682 0
M  V30 10 C  -38.9217 38.4822 -2.6440 0
M  V30 11 N  -39.5510 37.3821 -2.1703 0
M  V30 12 C  -39.5864 37.0619 -0.7435 0
M  V30 13 C  -40.3843 35.7640 -0.6098 0
M  V30 14 C  -41.2479 35.7200 -1.8617 0 CFG=1
M  V30 15 C  -40.4070 36.4571 -2.9161 0
M  V30 16 N  -41.5790 34.3516 -2.2442 0
M  V30 17 C  -42.5995 34.0173 -3.0504 0
M  V30 18 C  -42.8035 32.5783 -3.2892 0
M  V30 19 C  -42.3517 31.4811 -2.5537 0
M  V30 20 C  -42.8606 30.4440 -3.2701 0
M  V30 21 C  -43.5534 30.8682 -4.2943 0
M  V30 22 C  -44.0434 29.7711 -5.0426 0
M  V30 23 C  -43.5498 28.6700 -4.3500 0
M  V30 24 N  -42.8149 29.0839 -3.2181 0
M  V30 25 O  -43.5909 32.2116 -4.3888 0
M  V30 26 O  -43.3192 34.8445 -3.6080 0
M  V30 27 O  -38.4032 39.3050 -1.8900 0
M  V30 28 H  -38.5269 42.3096 -8.2341 0
M  V30 29 H  -37.9519 40.6383 -8.3858 0
M  V30 30 H  -39.6941 40.9784 -8.3863 0
M  V30 31 H  -38.8186 43.1439 -5.6504 0
M  V30 32 H  -38.9147 41.6725 -3.2970 0
M  V30 33 H  -38.7512 36.8469 -5.2867 0
M  V30 34 H  -40.0859 37.8716 -0.2079 0
M  V30 35 H  -38.5806 36.9568 -0.3318 0
M  V30 36 H  -40.9711 35.7287 0.3088 0
M  V30 37 H  -39.6895 34.9205 -0.5930 0
M  V30 38 H  -42.1582 36.2934 -1.6721 0
M  V30 39 H  -39.7750 35.7606 -3.4688 0
M  V30 40 H  -41.0513 36.9785 -3.6251 0
M  V30 41 H  -41.0279 33.6076 -1.8420 0
M  V30 42 H  -41.7429 31.4518 -1.6621 0
M  V30 43 H  -44.6370 29.7705 -5.9430 0
M  V30 44 H  -43.6574 27.6155 -4.5602 0
M  V30 45 H  -42.3518 28.5020 -2.5258 0
M  V30 END ATOM
M  V30 BEGIN BOND
M  V30 1 1 1 2
M  V30 2 1 1 28
M  V30 3 1 1 29
M  V30 4 1 1 30
M  V30 5 1 2 3
M  V30 6 1 2 9
M  V30 7 2 3 4
M  V30 8 1 3 31
M  V30 9 1 4 5
M  V30 10 1 4 32
M  V30 11 1 5 6
M  V30 12 1 5 9
M  V30 13 2 6 7
M  V30 14 1 6 10
M  V30 15 1 7 8
M  V30 16 1 7 33
M  V30 17 2 8 9
M  V30 18 1 10 11
M  V30 19 2 10 27
M  V30 20 1 11 12
M  V30 21 1 11 15
M  V30 22 1 12 13
M  V30 23 1 12 34
M  V30 24 1 12 35
M  V30 25 1 13 14
M  V30 26 1 13 36
M  V30 27 1 13 37
M  V30 28 1 14 15
M  V30 29 1 14 16
M  V30 30 1 14 38
M  V30 31 1 15 39
M  V30 32 1 15 40
M  V30 33 1 16 17
M  V30 34 1 16 41
M  V30 35 1 17 18
M  V30 36 2 17 26
M  V30 37 2 18 19
M  V30 38 1 18 25
M  V30 39 1 19 20
M  V30 40 1 19 42
M  V30 41 2 20 21
M  V30 42 1 20 24
M  V30 43 1 21 22
M  V30 44 1 21 25
M  V30 45 2 22 23
M  V30 46 1 22 43
M  V30 47 1 23 24
M  V30 48 1 23 44
M  V30 49 1 24 45
M  V30 END BOND
M  V30 END CTAB
M  END
> <s_m_entry_id>
12

> <i_f3d_flags>
0

> <r_epik_Ionization_Penalty>
  0.0042

> <r_epik_State_Penalty>
  0.0042

> <i_epik_Tot_Q>
0

> <r_i_docking_score>
-6.30845083265748

> <r_i_glide_gscore>
-6.31265083265748

> <r_i_glide_emodel>
-56.409621972447

> <s_m_subgroup_title>
nsp13-core1_lib_top-500_pv

> <s_m_subgroupid>
nsp13-core1_lib_top-500_pv

> <b_m_subgroup_collapsed>
0

$$$$
Core_1_EN300-304662_EN300-304662
                    3D
 Schrodinger Suite 2023-1.
  0  0  0     0  0            999 V3000
M  V30 BEGIN CTAB
M  V30 COUNTS 42 44 0 0 0
M  V30 BEGIN ATOM
M  V30 1 C  -43.1084 28.5145 -5.4421 0
M  V30 2 C  -43.5742 29.4164 -4.3561 0
M  V30 3 N  -44.7832 29.9673 -4.2318 0
M  V30 4 N  -44.7515 30.6828 -3.0555 0
M  V30 5 C  -43.5138 30.5319 -2.5742 0
M  V30 6 C  -42.9296 31.1633 -1.3516 0
M  V30 7 C  -42.8620 32.7061 -1.3995 0
M  V30 8 C  -42.0100 33.2966 -2.5426 0
M  V30 9 N  -41.3971 34.4832 -2.3614 0
M  V30 10 C  -41.5902 35.3932 -1.2359 0
M  V30 11 C  -41.0662 36.7507 -1.7080 0
M  V30 12 C  -40.0365 36.4086 -2.7833 0 CFG=1
M  V30 13 C  -40.5244 35.0806 -3.3693 0
M  V30 14 N  -39.9430 37.4243 -3.8234 0
M  V30 15 C  -39.1511 38.5076 -3.7630 0
M  V30 16 C  -39.0056 39.2925 -5.0093 0
M  V30 17 C  -38.2746 40.4367 -5.1397 0
M  V30 18 C  -38.4636 40.7569 -6.5133 0
M  V30 19 N  -39.2121 39.8843 -7.1782 0
M  V30 20 N  -39.5519 38.9827 -6.2324 0
M  V30 21 O  -37.9516 41.8129 -7.2009 0
M  V30 22 O  -38.5449 38.8324 -2.7420 0
M  V30 23 O  -41.9131 32.6926 -3.6099 0
M  V30 24 O  -42.7303 29.7304 -3.3428 0
M  V30 25 H  -43.6927 28.6816 -6.3477 0
M  V30 26 H  -43.2292 27.4775 -5.1311 0
M  V30 27 H  -42.0550 28.6943 -5.6565 0
M  V30 28 H  -43.5274 30.8498 -0.4944 0
M  V30 29 H  -41.9314 30.7547 -1.1882 0
M  V30 30 H  -43.8700 33.1159 -1.4798 0
M  V30 31 H  -42.4699 33.0405 -0.4392 0
M  V30 32 H  -42.6347 35.4633 -0.9281 0
M  V30 33 H  -41.0094 35.0345 -0.3851 0
M  V30 34 H  -41.8891 37.3188 -2.1452 0
M  V30 35 H  -40.6453 37.3486 -0.8984 0
M  V30 36 H  -39.0643 36.2451 -2.3137 0
M  V30 37 H  -39.6872 34.4232 -3.6116 0
M  V30 38 H  -41.1034 35.2355 -4.2818 0
M  V30 39 H  -40.4728 37.2516 -4.6706 0
M  V30 40 H  -37.7063 40.9578 -4.3835 0
M  V30 41 H  -37.1291 41.5630 -7.6101 0
M  V30 42 H  -40.1823 38.2071 -6.4126 0
M  V30 END ATOM
M  V30 BEGIN BOND
M  V30 1 1 1 2
M  V30 2 1 1 25
M  V30 3 1 1 26
M  V30 4 1 1 27
M  V30 5 2 2 3
M  V30 6 1 2 24
M  V30 7 1 3 4
M  V30 8 2 4 5
M  V30 9 1 5 6
M  V30 10 1 5 24
M  V30 11 1 6 7
M  V30 12 1 6 28
M  V30 13 1 6 29
M  V30 14 1 7 8
M  V30 15 1 7 30
M  V30 16 1 7 31
M  V30 17 1 8 9
M  V30 18 2 8 23
M  V30 19 1 9 10
M  V30 20 1 9 13
M  V30 21 1 10 11
M  V30 22 1 10 32
M  V30 23 1 10 33
M  V30 24 1 11 12
M  V30 25 1 11 34
M  V30 26 1 11 35
M  V30 27 1 12 13
M  V30 28 1 12 14
M  V30 29 1 12 36
M  V30 30 1 13 37
M  V30 31 1 13 38
M  V30 32 1 14 15
M  V30 33 1 14 39
M  V30 34 2 15 22
M  V30 35 1 15 16
M  V30 36 2 16 17
M  V30 37 1 16 20
M  V30 38 1 17 40
M  V30 39 1 17 18
M  V30 40 2 18 19
M  V30 41 1 18 21
M  V30 42 1 19 20
M  V30 43 1 20 42
M  V30 44 1 21 41
M  V30 END BOND
M  V30 END CTAB
M  END
> <s_m_entry_id>
13

> <i_f3d_flags>
0

> <r_lp_tautomer_probability>
0.966084542645576

> <r_epik_Ionization_Penalty>
  0.2453

> <r_epik_State_Penalty>
  0.3533

> <i_epik_Tot_Q>
0

> <r_i_docking_score>
-6.30017917422029

> <r_i_glide_gscore>
-6.65347917422029

> <r_i_glide_emodel>
-60.3844279088535

> <s_m_subgroup_title>
nsp13-core1_lib_top-500_pv

> <s_m_subgroupid>
nsp13-core1_lib_top-500_pv

> <b_m_subgroup_collapsed>
0

$$$$
Core_1_EN300-88773_EN300-88773
                    3D
 Schrodinger Suite 2023-1.
  0  0  0     0  0            999 V3000
M  V30 BEGIN CTAB
M  V30 COUNTS 62 64 0 0 0
M  V30 BEGIN ATOM
M  V30 1 C  -46.3923 38.7744 -2.9995 0
M  V30 2 C  -46.6257 37.7131 -1.9255 0
M  V30 3 N  -45.3327 37.0704 -1.7045 0
M  V30 4 C  -44.2660 37.8018 -2.3869 0
M  V30 5 C  -44.9051 39.1025 -2.8988 0 CFG=1
M  V30 6 N  -44.3622 39.4832 -4.1956 0
M  V30 7 C  -43.3415 40.3221 -4.4022 0
M  V30 8 C  -42.8099 40.3502 -5.8333 0
M  V30 9 C  -41.4521 41.0610 -5.9866 0
M  V30 10 S  -40.5656 40.4228 -7.4611 0
M  V30 11 N  -39.7079 39.0838 -6.8099 0 CFG=1
M  V30 12 C  -38.5676 39.3094 -5.9147 0
M  V30 13 C  -38.8425 38.8467 -4.5192 0
M  V30 14 C  -38.4793 39.3928 -3.3194 0
M  V30 15 C  -39.0364 38.5106 -2.3492 0
M  V30 16 N  -39.6870 37.4958 -2.8931 0
M  V30 17 N  -39.5513 37.7028 -4.2178 0
M  V30 18 O  -39.5695 41.4110 -7.8990 0
M  V30 19 O  -41.5515 39.8841 -8.4102 0
M  V30 20 O  -42.8286 41.0034 -3.5156 0
M  V30 21 C  -45.1840 35.9701 -0.9369 0
M  V30 22 C  -43.7857 35.3345 -0.8144 0
M  V30 23 C  -43.7333 34.0527 0.0505 0
M  V30 24 S  -44.6684 32.6465 -0.6989 0
M  V30 25 N  -43.6509 31.2844 -0.4115 0 CFG=1
M  V30 26 C  -42.4511 31.0327 -1.2238 0
M  V30 27 C  -42.7755 30.4414 -2.5696 0
M  V30 28 C  -43.0876 31.0257 -3.7663 0
M  V30 29 C  -43.3491 29.9318 -4.6401 0
M  V30 30 N  -43.1664 28.7594 -4.0646 0
M  V30 31 N  -42.8063 29.0844 -2.8103 0
M  V30 32 O  -45.8945 32.4342 0.0827 0
M  V30 33 O  -44.7514 32.8526 -2.1527 0
M  V30 34 O  -46.1395 35.4652 -0.3479 0
M  V30 35 H  -47.0262 39.6520 -2.8683 0
M  V30 36 H  -46.6192 38.3450 -3.9768 0
M  V30 37 H  -46.9524 38.1771 -0.9935 0
M  V30 38 H  -47.3904 36.9983 -2.2349 0
M  V30 39 H  -43.8973 37.1903 -3.2126 0
M  V30 40 H  -43.4247 38.0173 -1.7268 0
M  V30 41 H  -44.7669 39.8928 -2.1578 0
M  V30 42 H  -44.7080 38.9586 -4.9944 0
M  V30 43 H  -43.5516 40.7975 -6.4963 0
M  V30 44 H  -42.7106 39.3097 -6.1423 0
M  V30 45 H  -40.8096 40.9399 -5.1140 0
M  V30 46 H  -41.6101 42.1304 -6.1253 0
M  V30 47 H  -40.3745 38.4017 -6.4333 0
M  V30 48 H  -38.2966 40.3657 -5.9118 0
M  V30 49 H  -37.7035 38.7736 -6.3074 0
M  V30 50 H  -37.9058 40.2934 -3.1561 0
M  V30 51 H  -38.9878 38.5791 -1.2719 0
M  V30 52 H  -40.0016 37.0917 -4.8909 0
M  V30 53 H  -43.4009 35.1227 -1.8121 0
M  V30 54 H  -43.1166 36.0745 -0.3764 0
M  V30 55 H  -42.6981 33.7369 0.1755 0
M  V30 56 H  -44.1340 34.2239 1.0500 0
M  V30 57 H  -43.5513 31.0513 0.5911 0
M  V30 58 H  -41.8939 31.9618 -1.3446 0
M  V30 59 H  -41.8074 30.3505 -0.6690 0
M  V30 60 H  -43.1544 32.0814 -3.9804 0
M  V30 61 H  -43.6719 29.9559 -5.6673 0
M  V30 62 H  -42.5965 28.3716 -2.1109 0
M  V30 END ATOM
M  V30 BEGIN BOND
M  V30 1 1 1 2
M  V30 2 1 1 5
M  V30 3 1 1 35
M  V30 4 1 1 36
M  V30 5 1 2 3
M  V30 6 1 2 37
M  V30 7 1 2 38
M  V30 8 1 3 4
M  V30 9 1 3 21
M  V30 10 1 4 5
M  V30 11 1 4 39
M  V30 12 1 4 40
M  V30 13 1 5 6
M  V30 14 1 5 41
M  V30 15 1 6 7
M  V30 16 1 6 42
M  V30 17 1 7 8
M  V30 18 2 7 20
M  V30 19 1 8 9
M  V30 20 1 8 43
M  V30 21 1 8 44
M  V30 22 1 9 10
M  V30 23 1 9 45
M  V30 24 1 9 46
M  V30 25 1 10 11
M  V30 26 2 10 18
M  V30 27 2 10 19
M  V30 28 1 11 12
M  V30 29 1 11 47
M  V30 30 1 12 48
M  V30 31 1 12 49
M  V30 32 1 12 13
M  V30 33 1 13 17
M  V30 34 2 13 14
M  V30 35 1 14 15
M  V30 36 1 14 50
M  V30 37 1 15 51
M  V30 38 2 15 16
M  V30 39 1 16 17
M  V30 40 1 17 52
M  V30 41 1 21 22
M  V30 42 2 21 34
M  V30 43 1 22 23
M  V30 44 1 22 53
M  V30 45 1 22 54
M  V30 46 1 23 24
M  V30 47 1 23 55
M  V30 48 1 23 56
M  V30 49 1 24 25
M  V30 50 2 24 32
M  V30 51 2 24 33
M  V30 52 1 25 26
M  V30 53 1 25 57
M  V30 54 1 26 58
M  V30 55 1 26 59
M  V30 56 1 26 27
M  V30 57 1 27 31
M  V30 58 2 27 28
M  V30 59 1 28 29
M  V30 60 1 28 60
M  V30 61 1 29 61
M  V30 62 2 29 30
M  V30 63 1 30 31
M  V30 64 1 31 62
M  V30 END BOND
M  V30 END CTAB
M  END
> <s_m_entry_id>
14

> <i_f3d_flags>
0

> <r_lp_tautomer_probability>
0.25

> <r_epik_Ionization_Penalty>
  0.0005

> <r_epik_State_Penalty>
  0.8214

> <i_epik_Tot_Q>
0

> <r_i_docking_score>
-6.28203746333402

> <r_i_glide_gscore>
-7.10343746333402

> <r_i_glide_emodel>
-74.3704511823051

> <s_m_subgroup_title>
nsp13-core1_lib_top-500_pv

> <s_m_subgroupid>
nsp13-core1_lib_top-500_pv

> <b_m_subgroup_collapsed>
0

$$$$
Core_1_EN300-31688_EN300-31688
                    3D
 Schrodinger Suite 2023-1.
  0  0  0     0  0            999 V3000
M  V30 BEGIN CTAB
M  V30 COUNTS 40 42 0 0 0
M  V30 BEGIN ATOM
M  V30 1 C  -40.7710 35.2277 -1.1390 0
M  V30 2 C  -41.6063 33.9659 -0.9546 0
M  V30 3 N  -42.1914 33.6871 -2.2613 0
M  V30 4 C  -41.6055 34.5427 -3.2891 0
M  V30 5 C  -40.4245 35.2623 -2.6333 0 CFG=1
M  V30 6 N  -40.2512 36.6046 -3.1877 0
M  V30 7 C  -39.4788 37.5711 -2.6614 0
M  V30 8 C  -39.3687 38.9014 -3.4268 0 CFG=1
M  V30 9 C  -37.9772 39.5517 -3.3140 0 CFG=2
M  V30 10 C  -37.6196 40.8823 -3.9445 0
M  V30 11 C  -37.3922 39.5898 -4.6921 0 CFG=2
M  V30 12 C  -38.4686 39.1131 -5.5877 0
M  V30 13 N  -39.5295 38.7324 -4.8686 0
M  V30 14 O  -38.4019 39.0838 -6.8103 0
M  V30 15 O  -38.8573 37.4245 -1.6097 0
M  V30 16 C  -43.1940 32.8192 -2.5026 0
M  V30 17 C  -43.6726 31.9268 -1.3436 0
M  V30 18 S  -44.2799 30.2772 -1.8981 0
M  V30 19 N  -42.8510 29.4838 -2.4135 0
M  V30 20 O  -45.1514 30.4143 -3.0764 0
M  V30 21 O  -44.7569 29.5447 -0.7181 0
M  V30 22 O  -43.7281 32.7488 -3.6109 0
M  V30 23 H  -41.3754 36.0963 -0.8722 0
M  V30 24 H  -39.8876 35.2305 -0.4993 0
M  V30 25 H  -42.3640 34.1110 -0.1826 0
M  V30 26 H  -40.9746 33.1293 -0.6573 0
M  V30 27 H  -41.2832 33.9672 -4.1586 0
M  V30 28 H  -42.3663 35.2549 -3.6136 0
M  V30 29 H  -39.5169 34.6838 -2.8101 0
M  V30 30 H  -40.7158 36.7997 -4.0657 0
M  V30 31 H  -40.1355 39.5813 -3.0534 0
M  V30 32 H  -37.3354 39.2209 -2.4985 0
M  V30 33 H  -38.4408 41.5262 -4.2547 0
M  V30 34 H  -36.7362 41.4021 -3.5785 0
M  V30 35 H  -36.3924 39.1767 -4.8098 0
M  V30 36 H  -40.3784 38.3685 -5.2859 0
M  V30 37 H  -44.4893 32.4230 -0.8220 0
M  V30 38 H  -42.8920 31.7322 -0.6081 0
M  V30 39 H  -42.6224 28.6637 -1.8334 0
M  V30 40 H  -42.8474 29.2917 -3.4130 0
M  V30 END ATOM
M  V30 BEGIN BOND
M  V30 1 1 1 2
M  V30 2 1 1 5
M  V30 3 1 1 23
M  V30 4 1 1 24
M  V30 5 1 2 3
M  V30 6 1 2 25
M  V30 7 1 2 26
M  V30 8 1 3 4
M  V30 9 1 3 16
M  V30 10 1 4 5
M  V30 11 1 4 27
M  V30 12 1 4 28
M  V30 13 1 5 6
M  V30 14 1 5 29
M  V30 15 1 6 7
M  V30 16 1 6 30
M  V30 17 1 7 8
M  V30 18 2 7 15
M  V30 19 1 8 9
M  V30 20 1 8 13
M  V30 21 1 8 31
M  V30 22 1 9 10
M  V30 23 1 9 11
M  V30 24 1 9 32
M  V30 25 1 10 11
M  V30 26 1 10 33
M  V30 27 1 10 34
M  V30 28 1 11 12
M  V30 29 1 11 35
M  V30 30 1 12 13
M  V30 31 2 12 14
M  V30 32 1 13 36
M  V30 33 1 16 17
M  V30 34 2 16 22
M  V30 35 1 17 18
M  V30 36 1 17 37
M  V30 37 1 17 38
M  V30 38 1 18 19
M  V30 39 2 18 20
M  V30 40 2 18 21
M  V30 41 1 19 39
M  V30 42 1 19 40
M  V30 END BOND
M  V30 END CTAB
M  END
> <s_m_entry_id>
15

> <i_f3d_flags>
0

> <r_epik_Ionization_Penalty>
  0.0036

> <r_epik_State_Penalty>
  0.0036

> <i_epik_Tot_Q>
0

> <r_i_docking_score>
-6.28044876461343

> <r_i_glide_gscore>
-6.28404876461343

> <r_i_glide_emodel>
-59.5926831308445

> <s_m_subgroup_title>
nsp13-core1_lib_top-500_pv

> <s_m_subgroupid>
nsp13-core1_lib_top-500_pv

> <b_m_subgroup_collapsed>
0

$$$$
Core_1_EN300-05227_EN300-05227
                    3D
 Schrodinger Suite 2023-1.
  0  0  0     0  0            999 V3000
M  V30 BEGIN CTAB
M  V30 COUNTS 47 50 0 0 0
M  V30 BEGIN ATOM
M  V30 1 C  -41.9794 33.6716 -0.7363 0
M  V30 2 C  -41.1248 34.9406 -0.7564 0
M  V30 3 N  -40.6914 35.1136 -2.1457 0
M  V30 4 C  -41.3808 34.1650 -3.0122 0
M  V30 5 C  -42.5009 33.5608 -2.1617 0 CFG=1
M  V30 6 N  -42.7733 32.1861 -2.5591 0
M  V30 7 C  -43.6299 31.8648 -3.5382 0
M  V30 8 C  -43.6514 30.4609 -3.9842 0
M  V30 9 C  -44.3746 30.0015 -5.0469 0
M  V30 10 C  -43.9709 28.6421 -5.1150 0
M  V30 11 N  -43.1513 28.2838 -4.1467 0
M  V30 12 N  -42.9449 29.4121 -3.4435 0
M  V30 13 O  -44.3514 27.6934 -6.0100 0
M  V30 14 O  -44.3514 32.6941 -4.0922 0
M  V30 15 C  -39.8581 36.0555 -2.6408 0
M  V30 16 C  -39.3103 37.0900 -1.6938 0
M  V30 17 C  -38.4747 36.6815 -0.6302 0
M  V30 18 C  -37.9204 37.6142 0.2735 0
M  V30 19 C  -38.1819 38.9873 0.0801 0
M  V30 20 C  -38.9988 39.4119 -0.9830 0
M  V30 21 C  -39.5685 38.4758 -1.8686 0
M  V30 22 S  -40.6367 39.0906 -3.1419 0
M  V30 23 C  -39.4879 39.3525 -4.4452 0
M  V30 24 N  -38.4852 40.2218 -4.4238 0
M  V30 25 C  -37.9430 40.0022 -5.6585 0
M  V30 26 N  -38.5493 39.0839 -6.4099 0
M  V30 27 N  -39.5508 38.6838 -5.5956 0
M  V30 28 N  -37.0938 37.1566 1.4051 0 CHG=1
M  V30 29 O  -37.1514 35.9709 1.7150 0 CHG=-1
M  V30 30 O  -36.4006 37.9833 1.9885 0
M  V30 31 O  -39.5517 36.1025 -3.8326 0
M  V30 32 H  -42.7773 33.7113 0.0064 0
M  V30 33 H  -41.3475 32.8153 -0.4953 0
M  V30 34 H  -41.7166 35.8068 -0.4562 0
M  V30 35 H  -40.2965 34.8352 -0.0581 0
M  V30 36 H  -40.6644 33.4053 -3.3295 0
M  V30 37 H  -41.7819 34.6427 -3.9075 0
M  V30 38 H  -43.3943 34.1844 -2.2436 0
M  V30 39 H  -42.2229 31.4628 -2.1229 0
M  V30 40 H  -45.0538 30.5516 -5.6799 0
M  V30 41 H  -44.0884 27.8838 -6.9094 0
M  V30 42 H  -42.3513 29.4229 -2.6249 0
M  V30 43 H  -38.2487 35.6317 -0.5090 0
M  V30 44 H  -37.7671 39.7246 0.7527 0
M  V30 45 H  -39.1982 40.4655 -1.1148 0
M  V30 46 H  -37.0746 40.5380 -6.0102 0
M  V30 47 H  -40.2328 37.9674 -5.8381 0
M  V30 END ATOM
M  V30 BEGIN BOND
M  V30 1 1 1 2
M  V30 2 1 1 5
M  V30 3 1 1 32
M  V30 4 1 1 33
M  V30 5 1 2 3
M  V30 6 1 2 34
M  V30 7 1 2 35
M  V30 8 1 3 4
M  V30 9 1 3 15
M  V30 10 1 4 5
M  V30 11 1 4 36
M  V30 12 1 4 37
M  V30 13 1 5 6
M  V30 14 1 5 38
M  V30 15 1 6 7
M  V30 16 1 6 39
M  V30 17 2 7 14
M  V30 18 1 7 8
M  V30 19 2 8 9
M  V30 20 1 8 12
M  V30 21 1 9 40
M  V30 22 1 9 10
M  V30 23 2 10 11
M  V30 24 1 10 13
M  V30 25 1 11 12
M  V30 26 1 12 42
M  V30 27 1 13 41
M  V30 28 1 15 16
M  V30 29 2 15 31
M  V30 30 2 16 17
M  V30 31 1 16 21
M  V30 32 1 17 18
M  V30 33 1 17 43
M  V30 34 2 18 19
M  V30 35 1 18 28
M  V30 36 1 19 20
M  V30 37 1 19 44
M  V30 38 2 20 21
M  V30 39 1 20 45
M  V30 40 1 21 22
M  V30 41 1 22 23
M  V30 42 2 23 24
M  V30 43 1 23 27
M  V30 44 1 24 25
M  V30 45 2 25 26
M  V30 46 1 25 46
M  V30 47 1 26 27
M  V30 48 1 27 47
M  V30 49 1 28 29
M  V30 50 2 28 30
M  V30 END BOND
M  V30 END CTAB
M  END
> <s_m_entry_id>
16

> <i_f3d_flags>
0

> <r_lp_tautomer_probability>
0.553180625448528

> <r_epik_Ionization_Penalty>
  0.2623

> <r_epik_State_Penalty>
  0.0043

> <i_epik_Tot_Q>
0

> <r_i_docking_score>
-6.27680430229047

> <r_i_glide_gscore>
-6.28110430229047

> <r_i_glide_emodel>
-66.8096488108709

> <s_m_subgroup_title>
nsp13-core1_lib_top-500_pv

> <s_m_subgroupid>
nsp13-core1_lib_top-500_pv

> <b_m_subgroup_collapsed>
0

$$$$
Core_1_EN300-236051_EN300-236051
                    3D
 Schrodinger Suite 2023-1.
  0  0  0     0  0            999 V3000
M  V30 BEGIN CTAB
M  V30 COUNTS 47 51 0 0 0
M  V30 BEGIN ATOM
M  V30 1 C  -41.6266 36.7088 -1.9352 0
M  V30 2 C  -40.7132 37.6203 -1.1215 0
M  V30 3 N  -39.6514 36.7529 -0.6227 0
M  V30 4 C  -39.5618 35.5409 -1.4358 0
M  V30 5 C  -40.7073 35.6004 -2.4585 0 CFG=1
M  V30 6 N  -41.3383 34.2853 -2.5799 0
M  V30 7 C  -42.5085 33.9999 -3.1703 0
M  V30 8 C  -42.7916 32.5687 -3.3535 0
M  V30 9 C  -42.3516 31.4736 -2.6091 0
M  V30 10 C  -42.8848 30.4403 -3.3105 0
M  V30 11 C  -43.5842 30.8668 -4.3296 0
M  V30 12 C  -44.0600 29.7709 -5.0882 0
M  V30 13 C  -43.5514 28.6685 -4.4076 0
M  V30 14 N  -42.8235 29.0816 -3.2722 0
M  V30 15 O  -43.6096 32.2078 -4.4299 0
M  V30 16 O  -43.2812 34.8478 -3.6095 0
M  V30 17 C  -38.9992 36.9779 0.5393 0
M  V30 18 C  -38.0451 35.9076 1.0907 0
M  V30 19 C  -38.7221 34.7060 1.7216 0
M  V30 20 C  -37.9793 33.6014 2.0880 0
M  V30 21 S  -38.9314 32.3145 2.7884 0
M  V30 22 C  -40.3411 33.2901 2.5878 0
M  V30 23 N  -41.6217 33.0836 2.9008 0
M  V30 24 C  -42.3449 34.2462 2.4003 0
M  V30 25 C  -41.2871 35.2393 1.9000 0
M  V30 26 N  -40.0678 34.4663 2.0403 0 CHG=1
M  V30 27 O  -39.1585 38.0102 1.1900 0
M  V30 28 H  -42.3892 36.2920 -1.2758 0
M  V30 29 H  -42.1402 37.2415 -2.7365 0
M  V30 30 H  -41.2686 38.1192 -0.3254 0
M  V30 31 H  -40.2691 38.3890 -1.7552 0
M  V30 32 H  -38.5949 35.4847 -1.9360 0
M  V30 33 H  -39.6620 34.6621 -0.7991 0
M  V30 34 H  -40.3059 35.8980 -3.4295 0
M  V30 35 H  -40.7815 33.4982 -2.2845 0
M  V30 36 H  -41.7143 31.4474 -1.7375 0
M  V30 37 H  -44.6451 29.7692 -5.9965 0
M  V30 38 H  -43.6417 27.6153 -4.6307 0
M  V30 39 H  -42.3522 28.4988 -2.5879 0
M  V30 40 H  -37.3989 36.3855 1.8284 0
M  V30 41 H  -37.3781 35.5894 0.2910 0
M  V30 42 H  -36.9138 33.4560 1.9906 0
M  V30 43 H  -43.0087 33.9383 1.5916 0
M  V30 44 H  -42.9567 34.6799 3.1924 0
M  V30 45 H  -41.4537 35.4966 0.8566 0
M  V30 46 H  -41.2167 36.1371 2.5156 0
M  V30 47 H  -42.0481 32.1570 2.7898 0
M  V30 END ATOM
M  V30 BEGIN BOND
M  V30 1 1 1 2
M  V30 2 1 1 5
M  V30 3 1 1 28
M  V30 4 1 1 29
M  V30 5 1 2 3
M  V30 6 1 2 30
M  V30 7 1 2 31
M  V30 8 1 3 4
M  V30 9 1 3 17
M  V30 10 1 4 5
M  V30 11 1 4 32
M  V30 12 1 4 33
M  V30 13 1 5 6
M  V30 14 1 5 34
M  V30 15 1 6 7
M  V30 16 1 6 35
M  V30 17 1 7 8
M  V30 18 2 7 16
M  V30 19 2 8 9
M  V30 20 1 8 15
M  V30 21 1 9 10
M  V30 22 1 9 36
M  V30 23 2 10 11
M  V30 24 1 10 14
M  V30 25 1 11 12
M  V30 26 1 11 15
M  V30 27 2 12 13
M  V30 28 1 12 37
M  V30 29 1 13 14
M  V30 30 1 13 38
M  V30 31 1 14 39
M  V30 32 1 17 18
M  V30 33 2 17 27
M  V30 34 1 18 19
M  V30 35 1 18 40
M  V30 36 1 18 41
M  V30 37 2 19 20
M  V30 38 1 19 26
M  V30 39 1 20 21
M  V30 40 1 20 42
M  V30 41 1 21 22
M  V30 42 1 22 23
M  V30 43 2 22 26
M  V30 44 1 23 24
M  V30 45 1 23 47
M  V30 46 1 24 25
M  V30 47 1 24 43
M  V30 48 1 24 44
M  V30 49 1 25 26
M  V30 50 1 25 45
M  V30 51 1 25 46
M  V30 END BOND
M  V30 END CTAB
M  END
> <s_m_entry_id>
17

> <i_f3d_flags>
0

> <r_lp_tautomer_probability>
1

> <r_epik_Ionization_Penalty>
  0.0018

> <r_epik_State_Penalty>
  0.0017

> <i_epik_Tot_Q>
1

> <r_i_docking_score>
-6.25316897833314

> <r_i_glide_gscore>
-6.25486897833314

> <r_i_glide_emodel>
-57.5027861117706

> <s_m_subgroup_title>
nsp13-core1_lib_top-500_pv

> <s_m_subgroupid>
nsp13-core1_lib_top-500_pv

> <b_m_subgroup_collapsed>
0

$$$$
Core_1_EN300-633459_EN300-633459
                    3D
 Schrodinger Suite 2023-1.
  0  0  0     0  0            999 V3000
M  V30 BEGIN CTAB
M  V30 COUNTS 53 57 0 0 0
M  V30 BEGIN ATOM
M  V30 1 C  -42.2222 34.1336 2.6675 0
M  V30 2 C  -40.7173 34.1658 2.3972 0
M  V30 3 N  -40.5437 34.9905 1.2022 0
M  V30 4 C  -41.8407 35.2633 0.5781 0
M  V30 5 C  -42.8564 34.3649 1.3002 0 CFG=1
M  V30 6 N  -43.0179 33.0828 0.6264 0
M  V30 7 C  -43.4486 32.8470 -0.6199 0
M  V30 8 C  -43.2331 31.4160 -1.1298 0 CFG=1
M  V30 9 C  -44.4607 30.7455 -1.7771 0
M  V30 10 C  -43.6397 30.5446 -3.0574 0 CFG=2
M  V30 11 C  -42.4806 31.3501 -2.4739 0
M  V30 12 C  -44.2462 31.0199 -4.3597 0
M  V30 13 N  -44.2167 29.9914 -5.2017 0
M  V30 14 C  -43.6709 28.8993 -4.6551 0
M  V30 15 N  -43.3188 29.1744 -3.3905 0
M  V30 16 O  -43.5516 27.8172 -5.2103 0
M  V30 17 O  -44.7202 32.1347 -4.5583 0
M  V30 18 O  -43.9421 33.7087 -1.3488 0
M  V30 19 C  -39.3388 35.4588 0.8077 0
M  V30 20 C  -39.2808 36.3494 -0.3998 0
M  V30 21 C  -38.7602 37.6532 -0.2679 0
M  V30 22 C  -38.6344 38.4878 -1.3937 0
M  V30 23 C  -39.0193 38.0215 -2.6701 0
M  V30 24 C  -39.5525 36.7206 -2.8045 0
M  V30 25 C  -39.6674 35.8845 -1.6772 0
M  V30 26 C  -38.7507 38.8507 -3.8802 0
M  V30 27 N  -39.1515 38.5426 -5.1632 0
M  V30 28 C  -38.6537 39.4435 -5.9900 0
M  V30 29 N  -38.0064 40.2839 -5.1963 0
M  V30 30 N  -38.0544 39.9419 -3.8903 0
M  V30 31 O  -38.7590 39.4839 -7.2103 0
M  V30 32 O  -38.2973 35.2179 1.4185 0
M  V30 33 H  -42.4884 34.9575 3.3316 0
M  V30 34 H  -42.5452 33.2082 3.1489 0
M  V30 35 H  -40.1694 34.5582 3.2551 0
M  V30 36 H  -40.3457 33.1604 2.1913 0
M  V30 37 H  -41.8479 35.1032 -0.4973 0
M  V30 38 H  -42.0870 36.3124 0.7479 0
M  V30 39 H  -43.8338 34.8430 1.3847 0
M  V30 40 H  -42.7530 32.2605 1.1684 0
M  V30 41 H  -42.7693 30.7664 -0.3850 0
M  V30 42 H  -45.3180 31.4104 -1.8940 0
M  V30 43 H  -44.7495 29.8188 -1.2797 0
M  V30 44 H  -41.5513 30.7892 -2.4088 0
M  V30 45 H  -42.3229 32.3150 -2.9603 0
M  V30 46 H  -44.5762 30.0207 -6.1443 0
M  V30 47 H  -42.8821 28.5252 -2.7475 0
M  V30 48 H  -38.4382 38.0137 0.6989 0
M  V30 49 H  -38.2071 39.4728 -1.2706 0
M  V30 50 H  -39.8333 36.3331 -3.7733 0
M  V30 51 H  -40.0337 34.8761 -1.8045 0
M  V30 52 H  -39.7472 37.7678 -5.4232 0
M  V30 53 H  -37.4943 41.1053 -5.4829 0
M  V30 END ATOM
M  V30 BEGIN BOND
M  V30 1 1 1 2
M  V30 2 1 1 5
M  V30 3 1 1 33
M  V30 4 1 1 34
M  V30 5 1 2 3
M  V30 6 1 2 35
M  V30 7 1 2 36
M  V30 8 1 3 4
M  V30 9 1 3 19
M  V30 10 1 4 5
M  V30 11 1 4 37
M  V30 12 1 4 38
M  V30 13 1 5 6
M  V30 14 1 5 39
M  V30 15 1 6 7
M  V30 16 1 6 40
M  V30 17 1 7 8
M  V30 18 2 7 18
M  V30 19 1 8 9
M  V30 20 1 8 11
M  V30 21 1 8 41
M  V30 22 1 9 10
M  V30 23 1 9 42
M  V30 24 1 9 43
M  V30 25 1 10 11
M  V30 26 1 10 12
M  V30 27 1 10 15
M  V30 28 1 11 44
M  V30 29 1 11 45
M  V30 30 1 12 13
M  V30 31 2 12 17
M  V30 32 1 13 14
M  V30 33 1 13 46
M  V30 34 1 14 15
M  V30 35 2 14 16
M  V30 36 1 15 47
M  V30 37 1 19 20
M  V30 38 2 19 32
M  V30 39 2 20 21
M  V30 40 1 20 25
M  V30 41 1 21 22
M  V30 42 1 21 48
M  V30 43 2 22 23
M  V30 44 1 22 49
M  V30 45 1 23 24
M  V30 46 1 23 26
M  V30 47 2 24 25
M  V30 48 1 24 50
M  V30 49 1 25 51
M  V30 50 1 26 27
M  V30 51 2 26 30
M  V30 52 1 27 28
M  V30 53 1 27 52
M  V30 54 1 28 29
M  V30 55 2 28 31
M  V30 56 1 29 30
M  V30 57 1 29 53
M  V30 END BOND
M  V30 END CTAB
M  END
> <s_m_entry_id>
19

> <i_f3d_flags>
0

> <r_lp_tautomer_probability>
0.999897232630794

> <r_epik_Ionization_Penalty>
  0.0276

> <r_epik_State_Penalty>
  0.0098

> <i_epik_Tot_Q>
0

> <r_i_docking_score>
-6.23788186774129

> <r_i_glide_gscore>
-6.24768186774129

> <r_i_glide_emodel>
-64.0952077483971

> <s_m_subgroup_title>
nsp13-core1_lib_top-500_pv

> <s_m_subgroupid>
nsp13-core1_lib_top-500_pv

> <b_m_subgroup_collapsed>
0

$$$$
Core_1_EN300-113507_EN300-113507
                    3D
 Schrodinger Suite 2023-1.
  0  0  0     0  0            999 V3000
M  V30 BEGIN CTAB
M  V30 COUNTS 42 44 0 0 0
M  V30 BEGIN ATOM
M  V30 1 C  -38.9615 39.9457 -6.6230 0
M  V30 2 C  -40.1613 40.0630 -7.5626 0
M  V30 3 N  -41.2620 40.6230 -6.7872 0
M  V30 4 C  -40.9041 40.7275 -5.3711 0
M  V30 5 C  -39.5251 40.0730 -5.2118 0 CFG=1
M  V30 6 N  -39.6618 38.7691 -4.5724 0
M  V30 7 C  -39.2822 38.4620 -3.3233 0
M  V30 8 C  -39.7767 37.1365 -2.8303 0
M  V30 9 C  -40.2352 37.0010 -1.5020 0
M  V30 10 C  -40.7859 35.7815 -1.0610 0
M  V30 11 C  -40.8793 34.6837 -1.9400 0
M  V30 12 C  -41.5313 33.4445 -1.4916 0
M  V30 13 C  -42.4855 32.7212 -2.1167 0
M  V30 14 C  -43.2307 33.0443 -3.3337 0
M  V30 15 N  -44.2065 32.1695 -3.6500 0 CHG=-1
M  V30 16 C  -44.3515 31.1620 -2.8167 0
M  V30 17 O  -45.2043 30.2838 -2.8119 0
M  V30 18 S  -43.1405 31.2133 -1.5138 0
M  V30 19 O  -43.0131 34.0447 -4.0103 0
M  V30 20 C  -40.3462 34.7980 -3.2397 0
M  V30 21 C  -39.8013 36.0137 -3.6851 0
M  V30 22 O  -38.6515 39.2210 -2.5888 0
M  V30 23 C  -42.4705 40.8906 -7.3328 0
M  V30 24 C  -43.5536 41.4956 -6.4103 0
M  V30 25 N  -44.5628 40.6839 -6.0885 0
M  V30 26 O  -43.4640 42.6549 -6.0134 0
M  V30 27 O  -42.7508 40.6837 -8.5166 0
M  V30 28 H  -38.3948 39.0269 -6.7750 0
M  V30 29 H  -38.2772 40.7748 -6.8104 0
M  V30 30 H  -40.4528 39.0837 -7.9423 0
M  V30 31 H  -39.9192 40.7019 -8.4103 0
M  V30 32 H  -40.8487 41.7829 -5.0998 0
M  V30 33 H  -41.6518 40.2612 -4.7264 0
M  V30 34 H  -38.8731 40.7159 -4.6172 0
M  V30 35 H  -40.2244 38.0820 -5.0623 0
M  V30 36 H  -40.2030 37.8439 -0.8264 0
M  V30 37 H  -41.1689 35.7015 -0.0541 0
M  V30 38 H  -41.1502 33.0421 -0.5651 0
M  V30 39 H  -40.3836 33.9564 -3.9149 0
M  V30 40 H  -39.4298 36.0806 -4.6975 0
M  V30 41 H  -44.5855 39.7223 -6.4102 0
M  V30 42 H  -45.2932 41.0270 -5.4840 0
M  V30 END ATOM
M  V30 BEGIN BOND
M  V30 1 1 1 2
M  V30 2 1 1 5
M  V30 3 1 1 28
M  V30 4 1 1 29
M  V30 5 1 2 3
M  V30 6 1 2 30
M  V30 7 1 2 31
M  V30 8 1 3 4
M  V30 9 1 3 23
M  V30 10 1 4 5
M  V30 11 1 4 32
M  V30 12 1 4 33
M  V30 13 1 5 6
M  V30 14 1 5 34
M  V30 15 1 6 7
M  V30 16 1 6 35
M  V30 17 1 7 8
M  V30 18 2 7 22
M  V30 19 2 8 9
M  V30 20 1 8 21
M  V30 21 1 9 10
M  V30 22 1 9 36
M  V30 23 2 10 11
M  V30 24 1 10 37
M  V30 25 1 11 12
M  V30 26 1 11 20
M  V30 27 2 12 13 CFG=2
M  V30 28 1 12 38
M  V30 29 1 13 14
M  V30 30 1 13 18
M  V30 31 1 14 15
M  V30 32 2 14 19
M  V30 33 1 15 16
M  V30 34 2 16 17
M  V30 35 1 16 18
M  V30 36 2 20 21
M  V30 37 1 20 39
M  V30 38 1 21 40
M  V30 39 1 23 24
M  V30 40 2 23 27
M  V30 41 1 24 25
M  V30 42 2 24 26
M  V30 43 1 25 41
M  V30 44 1 25 42
M  V30 END BOND
M  V30 END CTAB
M  END
> <s_m_entry_id>
20

> <i_f3d_flags>
0

> <r_epik_Ionization_Penalty>
  0.0631

> <r_epik_State_Penalty>
  0.0630

> <i_epik_Tot_Q>
-1

> <r_i_docking_score>
-6.23712985120324

> <r_i_glide_gscore>
-6.30012985120324

> <r_i_glide_emodel>
-61.2196313487263

> <s_m_subgroup_title>
nsp13-core1_lib_top-500_pv

> <s_m_subgroupid>
nsp13-core1_lib_top-500_pv

> <b_m_subgroup_collapsed>
0

$$$$
Core_1_EN300-13984_EN300-13984
                    3D
 Schrodinger Suite 2023-1.
  0  0  0     0  0            999 V3000
M  V30 BEGIN CTAB
M  V30 COUNTS 38 40 0 0 0
M  V30 BEGIN ATOM
M  V30 1 C  -42.9249 34.0484 -0.5838 0
M  V30 2 C  -43.9288 32.9061 -0.4491 0
M  V30 3 N  -43.6091 31.9598 -1.5171 0
M  V30 4 C  -42.2641 32.2053 -2.0398 0
M  V30 5 C  -41.7067 33.3828 -1.2190 0 CFG=1
M  V30 6 N  -40.8401 34.2949 -1.9757 0
M  V30 7 C  -41.1365 34.9838 -3.0905 0
M  V30 8 C  -40.0016 35.7905 -3.7269 0
M  V30 9 S  -39.9480 37.5115 -3.1303 0
M  V30 10 C  -38.9542 38.2524 -4.3865 0
M  V30 11 N  -37.9555 39.0994 -4.1667 0
M  V30 12 C  -37.5693 39.3777 -5.4482 0
M  V30 13 N  -38.2641 38.7685 -6.4079 0
M  V30 14 N  -39.1512 38.0468 -5.6889 0
M  V30 15 O  -42.2510 34.9712 -3.6101 0
M  V30 16 C  -44.5257 31.1162 -2.0336 0
M  V30 17 C  -44.1805 30.3251 -3.2327 0
M  V30 18 C  -44.7452 30.2786 -4.4800 0
M  V30 19 C  -44.0952 29.2456 -5.2111 0
M  V30 20 C  -43.1509 28.6897 -4.3961 0
M  V30 21 N  -43.2146 29.3450 -3.1849 0
M  V30 22 O  -45.6779 31.0465 -1.6082 0
M  V30 23 H  -42.6964 34.5183 0.3738 0
M  V30 24 H  -43.3487 34.8124 -1.2342 0
M  V30 25 H  -43.8024 32.3935 0.5080 0
M  V30 26 H  -44.9535 33.2789 -0.4963 0
M  V30 27 H  -42.3298 32.4266 -3.1064 0
M  V30 28 H  -41.6298 31.3235 -1.9267 0
M  V30 29 H  -41.1235 32.9636 -0.3993 0
M  V30 30 H  -39.8983 34.3917 -1.6248 0
M  V30 31 H  -40.1439 35.7613 -4.8067 0
M  V30 32 H  -39.0395 35.3159 -3.5273 0
M  V30 33 H  -36.7538 40.0450 -5.6746 0
M  V30 34 H  -39.8940 37.4880 -6.0957 0
M  V30 35 H  -45.5510 30.9052 -4.8391 0
M  V30 36 H  -44.2983 28.9387 -6.2282 0
M  V30 37 H  -42.4528 27.8843 -4.5610 0
M  V30 38 H  -42.6639 29.1061 -2.3666 0
M  V30 END ATOM
M  V30 BEGIN BOND
M  V30 1 1 1 2
M  V30 2 1 1 5
M  V30 3 1 1 23
M  V30 4 1 1 24
M  V30 5 1 2 3
M  V30 6 1 2 25
M  V30 7 1 2 26
M  V30 8 1 3 4
M  V30 9 1 3 16
M  V30 10 1 4 5
M  V30 11 1 4 27
M  V30 12 1 4 28
M  V30 13 1 5 6
M  V30 14 1 5 29
M  V30 15 1 6 7
M  V30 16 1 6 30
M  V30 17 1 7 8
M  V30 18 2 7 15
M  V30 19 1 8 9
M  V30 20 1 8 31
M  V30 21 1 8 32
M  V30 22 1 9 10
M  V30 23 2 10 11
M  V30 24 1 10 14
M  V30 25 1 11 12
M  V30 26 2 12 13
M  V30 27 1 12 33
M  V30 28 1 13 14
M  V30 29 1 14 34
M  V30 30 1 16 17
M  V30 31 2 16 22
M  V30 32 2 17 18
M  V30 33 1 17 21
M  V30 34 1 18 19
M  V30 35 1 18 35
M  V30 36 2 19 20
M  V30 37 1 19 36
M  V30 38 1 20 21
M  V30 39 1 20 37
M  V30 40 1 21 38
M  V30 END BOND
M  V30 END CTAB
M  END
> <s_m_entry_id>
23

> <i_f3d_flags>
0

> <r_lp_tautomer_probability>
0.5726006379666

> <r_epik_Ionization_Penalty>
  0.0520

> <r_epik_State_Penalty>
  0.3304

> <i_epik_Tot_Q>
0

> <r_i_docking_score>
-6.21878091906644

> <r_i_glide_gscore>
-6.54918091906644

> <r_i_glide_emodel>
-54.4405576494613

> <s_m_subgroup_title>
nsp13-core1_lib_top-500_pv

> <s_m_subgroupid>
nsp13-core1_lib_top-500_pv

> <b_m_subgroup_collapsed>
0

$$$$
Core_1_EN300-72896_EN300-72896
                    3D
 Schrodinger Suite 2023-1.
  0  0  0     0  0            999 V3000
M  V30 BEGIN CTAB
M  V30 COUNTS 44 46 0 0 0
M  V30 BEGIN ATOM
M  V30 1 C  -43.9622 37.6138 -2.3413 0
M  V30 2 C  -43.1125 38.8294 -2.7103 0
M  V30 3 N  -41.7698 38.3201 -2.9858 0
M  V30 4 C  -41.7581 36.8576 -2.9551 0
M  V30 5 C  -43.2320 36.4370 -2.9778 0 CFG=1
M  V30 6 N  -43.4694 35.1967 -2.2432 0
M  V30 7 C  -43.5521 33.9812 -2.8047 0
M  V30 8 C  -43.9042 32.8122 -1.8730 0
M  V30 9 O  -44.7358 31.8667 -2.5464 0
M  V30 10 C  -44.1671 30.9321 -3.3876 0
M  V30 11 C  -42.7815 30.6656 -3.4915 0
M  V30 12 C  -42.3514 29.6974 -4.4162 0
M  V30 13 C  -43.3067 29.0362 -5.2094 0
M  V30 14 C  -44.6596 29.3713 -5.0316 0
M  V30 15 N  -45.0868 30.2836 -4.1338 0
M  V30 16 O  -43.3830 33.7949 -4.0101 0
M  V30 17 C  -40.7416 39.1323 -3.3162 0
M  V30 18 C  -39.3638 38.5157 -3.6359 0 CFG=2
M  V30 19 C  -38.1614 39.4124 -3.2437 0
M  V30 20 C  -37.3609 39.6673 -4.5327 0
M  V30 21 C  -38.2094 39.0211 -5.6107 0
M  V30 22 N  -39.2437 38.3779 -5.0758 0
M  V30 23 O  -37.9541 39.0835 -6.8102 0
M  V30 24 O  -40.8868 40.3550 -3.3886 0
M  V30 25 H  -44.9927 37.7041 -2.6861 0
M  V30 26 H  -43.9810 37.5116 -1.2550 0
M  V30 27 H  -43.5037 39.3045 -3.6113 0
M  V30 28 H  -43.1072 39.5731 -1.9123 0
M  V30 29 H  -41.2677 36.5373 -2.0342 0
M  V30 30 H  -41.2159 36.4183 -3.7933 0
M  V30 31 H  -43.5620 36.3566 -4.0165 0
M  V30 32 H  -43.6088 35.2710 -1.2441 0
M  V30 33 H  -44.4826 33.1982 -1.0333 0
M  V30 34 H  -43.0124 32.3694 -1.4326 0
M  V30 35 H  -42.0412 31.1795 -2.8971 0
M  V30 36 H  -41.2992 29.4832 -4.5290 0
M  V30 37 H  -43.0104 28.2911 -5.9340 0
M  V30 38 H  -45.4266 28.8792 -5.6104 0
M  V30 39 H  -39.2425 37.5369 -3.1730 0
M  V30 40 H  -38.4628 40.3640 -2.8032 0
M  V30 41 H  -37.5427 38.9174 -2.4949 0
M  V30 42 H  -37.2294 40.7320 -4.7330 0
M  V30 43 H  -36.3788 39.1917 -4.4961 0
M  V30 44 H  -39.9687 37.9189 -5.6169 0
M  V30 END ATOM
M  V30 BEGIN BOND
M  V30 1 1 1 2
M  V30 2 1 1 5
M  V30 3 1 1 25
M  V30 4 1 1 26
M  V30 5 1 2 3
M  V30 6 1 2 27
M  V30 7 1 2 28
M  V30 8 1 3 4
M  V30 9 1 3 17
M  V30 10 1 4 5
M  V30 11 1 4 29
M  V30 12 1 4 30
M  V30 13 1 5 6
M  V30 14 1 5 31
M  V30 15 1 6 7
M  V30 16 1 6 32
M  V30 17 1 7 8
M  V30 18 2 7 16
M  V30 19 1 8 9
M  V30 20 1 8 33
M  V30 21 1 8 34
M  V30 22 1 9 10
M  V30 23 2 10 11
M  V30 24 1 10 15
M  V30 25 1 11 12
M  V30 26 1 11 35
M  V30 27 2 12 13
M  V30 28 1 12 36
M  V30 29 1 13 14
M  V30 30 1 13 37
M  V30 31 2 14 15
M  V30 32 1 14 38
M  V30 33 1 17 18
M  V30 34 2 17 24
M  V30 35 1 18 19
M  V30 36 1 18 22
M  V30 37 1 18 39
M  V30 38 1 19 20
M  V30 39 1 19 40
M  V30 40 1 19 41
M  V30 41 1 20 21
M  V30 42 1 20 42
M  V30 43 1 20 43
M  V30 44 1 21 22
M  V30 45 2 21 23
M  V30 46 1 22 44
M  V30 END BOND
M  V30 END CTAB
M  END
> <s_m_entry_id>
24

> <i_f3d_flags>
0

> <r_lp_tautomer_probability>
1

> <r_epik_Ionization_Penalty>
  0.0000

> <r_epik_State_Penalty>
  0.0000

> <i_epik_Tot_Q>
0

> <r_i_docking_score>
-6.21532548207754

> <r_i_glide_gscore>
-6.21532548207754

> <r_i_glide_emodel>
-51.9018713672098

> <s_m_subgroup_title>
nsp13-core1_lib_top-500_pv

> <s_m_subgroupid>
nsp13-core1_lib_top-500_pv

> <b_m_subgroup_collapsed>
0

$$$$
Core_1_EN300-41863_EN300-41863
                    3D
 Schrodinger Suite 2023-1.
  0  0  0     0  0            999 V3000
M  V30 BEGIN CTAB
M  V30 COUNTS 41 44 0 0 0
M  V30 BEGIN ATOM
M  V30 1 C  -40.8127 37.1183 -0.7648 0
M  V30 2 C  -40.0514 38.4095 -1.0459 0
M  V30 3 N  -39.7522 38.4090 -2.4775 0
M  V30 4 C  -40.4706 37.3197 -3.1418 0
M  V30 5 C  -41.4483 36.7618 -2.0979 0 CFG=1
M  V30 6 N  -41.6478 35.3208 -2.2113 0
M  V30 7 C  -42.6939 34.7332 -2.8124 0
M  V30 8 C  -42.7316 33.2365 -2.7278 0
M  V30 9 C  -42.2925 32.5627 -1.5637 0
M  V30 10 C  -42.3505 31.1591 -1.4933 0
M  V30 11 C  -42.8515 30.4343 -2.5873 0
M  V30 12 C  -43.3276 31.0780 -3.7650 0
M  V30 13 C  -43.7817 30.0618 -4.6750 0
M  V30 14 C  -43.5494 28.8568 -4.0656 0
M  V30 15 N  -43.0107 29.0839 -2.8106 0
M  V30 16 C  -43.2648 32.4895 -3.8037 0
M  V30 17 O  -43.5510 35.3459 -3.4517 0
M  V30 18 C  -38.8782 39.2907 -3.0153 0
M  V30 19 C  -38.5757 39.2568 -4.4875 0
M  V30 20 C  -39.4826 39.1749 -5.5849 0
M  V30 21 N  -38.8459 39.3022 -6.7452 0
M  V30 22 N  -37.5517 39.4837 -6.3980 0
M  V30 23 C  -37.3478 39.4816 -5.0340 0
M  V30 24 O  -38.2691 40.1081 -2.3231 0
M  V30 25 H  -40.1012 36.3463 -0.4673 0
M  V30 26 H  -41.5430 37.2260 0.0384 0
M  V30 27 H  -39.1487 38.4713 -0.4357 0
M  V30 28 H  -40.6708 39.2768 -0.8101 0
M  V30 29 H  -41.0255 37.6590 -4.0098 0
M  V30 30 H  -39.7504 36.5673 -3.4706 0
M  V30 31 H  -42.3973 37.2966 -2.1778 0
M  V30 32 H  -40.9687 34.7238 -1.7588 0
M  V30 33 H  -41.9178 33.1065 -0.7095 0
M  V30 34 H  -42.0133 30.6486 -0.6019 0
M  V30 35 H  -44.2045 30.2218 -5.6558 0
M  V30 36 H  -43.7311 27.8532 -4.4208 0
M  V30 37 H  -42.7513 28.3480 -2.1541 0
M  V30 38 H  -43.6226 33.0032 -4.6833 0
M  V30 39 H  -40.5588 39.0831 -5.5912 0
M  V30 40 H  -36.8403 39.7182 -7.0884 0
M  V30 41 H  -36.3854 39.6542 -4.5716 0
M  V30 END ATOM
M  V30 BEGIN BOND
M  V30 1 1 1 2
M  V30 2 1 1 5
M  V30 3 1 1 25
M  V30 4 1 1 26
M  V30 5 1 2 3
M  V30 6 1 2 27
M  V30 7 1 2 28
M  V30 8 1 3 4
M  V30 9 1 3 18
M  V30 10 1 4 5
M  V30 11 1 4 29
M  V30 12 1 4 30
M  V30 13 1 5 6
M  V30 14 1 5 31
M  V30 15 1 6 7
M  V30 16 1 6 32
M  V30 17 1 7 8
M  V30 18 2 7 17
M  V30 19 2 8 9
M  V30 20 1 8 16
M  V30 21 1 9 10
M  V30 22 1 9 33
M  V30 23 2 10 11
M  V30 24 1 10 34
M  V30 25 1 11 12
M  V30 26 1 11 15
M  V30 27 1 12 13
M  V30 28 2 12 16
M  V30 29 2 13 14
M  V30 30 1 13 35
M  V30 31 1 14 15
M  V30 32 1 14 36
M  V30 33 1 15 37
M  V30 34 1 16 38
M  V30 35 1 18 19
M  V30 36 2 18 24
M  V30 37 1 19 20
M  V30 38 2 19 23
M  V30 39 2 20 21
M  V30 40 1 20 39
M  V30 41 1 21 22
M  V30 42 1 22 23
M  V30 43 1 22 40
M  V30 44 1 23 41
M  V30 END BOND
M  V30 END CTAB
M  END
> <s_m_entry_id>
26

> <i_f3d_flags>
0

> <r_lp_tautomer_probability>
1

> <r_epik_Ionization_Penalty>
  0.0000

> <r_epik_State_Penalty>
  0.0000

> <i_epik_Tot_Q>
0

> <r_i_docking_score>
-6.21073805661553

> <r_i_glide_gscore>
-6.21073805661553

> <r_i_glide_emodel>
-54.2017831808562

> <s_m_subgroup_title>
nsp13-core1_lib_top-500_pv

> <s_m_subgroupid>
nsp13-core1_lib_top-500_pv

> <b_m_subgroup_collapsed>
0

$$$$
Core_1_EN300-736093_EN300-736093
                    3D
 Schrodinger Suite 2023-1.
  0  0  0     0  0            999 V3000
M  V30 BEGIN CTAB
M  V30 COUNTS 45 47 0 0 0
M  V30 BEGIN ATOM
M  V30 1 C  -42.5546 39.8858 -5.0784 0
M  V30 2 C  -41.0343 39.8843 -4.9891 0
M  V30 3 C  -40.3788 39.1314 -3.8722 0
M  V30 4 C  -39.0756 39.3473 -3.5898 0
M  V30 5 N  -38.2425 40.1587 -4.3686 0
M  V30 6 C  -36.8130 40.2199 -4.0580 0
M  V30 7 S  -38.7202 40.4345 -6.0118 0
M  V30 8 N  -40.3854 40.5239 -5.8823 0
M  V30 9 O  -38.3503 39.2303 -6.7729 0
M  V30 10 O  -38.1749 41.7400 -6.4114 0
M  V30 11 C  -41.1608 38.3018 -2.9504 0
M  V30 12 N  -40.7790 37.0010 -2.8770 0
M  V30 13 C  -39.6964 36.3622 -3.6333 0
M  V30 14 C  -39.9513 34.8673 -3.5596 0
M  V30 15 C  -40.7455 34.6752 -2.2702 0 CFG=1
M  V30 16 C  -41.5018 36.0051 -2.0787 0
M  V30 17 N  -41.5643 33.4567 -2.3095 0
M  V30 18 C  -42.5765 33.1706 -3.1530 0
M  V30 19 C  -42.9000 31.7138 -3.2994 0
M  V30 20 C  -43.9501 31.2661 -4.2806 0
M  V30 21 C  -43.9808 29.8204 -4.5684 0
M  V30 22 C  -43.2138 29.0010 -3.8325 0
M  V30 23 N  -42.3982 29.4837 -2.8096 0
M  V30 24 N  -42.2379 30.8341 -2.6061 0
M  V30 25 O  -44.7513 32.0368 -4.8078 0
M  V30 26 O  -43.1354 34.0376 -3.8255 0
M  V30 27 O  -42.1092 38.7301 -2.2912 0
M  V30 28 H  -42.9819 40.4234 -4.2342 0
M  V30 29 H  -42.8905 40.3760 -5.9931 0
M  V30 30 H  -42.9547 38.8714 -5.0870 0
M  V30 31 H  -38.5819 38.9132 -2.7307 0
M  V30 32 H  -36.6522 40.3574 -2.9876 0
M  V30 33 H  -36.3221 39.2981 -4.3740 0
M  V30 34 H  -36.3518 41.0593 -4.5789 0
M  V30 35 H  -38.7515 36.5933 -3.1443 0
M  V30 36 H  -39.6351 36.6910 -4.6735 0
M  V30 37 H  -39.0329 34.2842 -3.6081 0
M  V30 38 H  -40.5656 34.5912 -4.4118 0
M  V30 39 H  -40.0392 34.5841 -1.4446 0
M  V30 40 H  -42.5331 35.9651 -2.4297 0
M  V30 41 H  -41.5311 36.2886 -1.0251 0
M  V30 42 H  -41.2135 32.6749 -1.7710 0
M  V30 43 H  -44.6147 29.4528 -5.3611 0
M  V30 44 H  -43.1662 27.9312 -3.9684 0
M  V30 45 H  -41.9430 28.8544 -2.1510 0
M  V30 END ATOM
M  V30 BEGIN BOND
M  V30 1 1 1 2
M  V30 2 1 1 28
M  V30 3 1 1 29
M  V30 4 1 1 30
M  V30 5 1 2 3
M  V30 6 2 2 8
M  V30 7 2 3 4
M  V30 8 1 3 11
M  V30 9 1 4 5
M  V30 10 1 4 31
M  V30 11 1 5 6
M  V30 12 1 5 7
M  V30 13 1 6 32
M  V30 14 1 6 33
M  V30 15 1 6 34
M  V30 16 1 7 8
M  V30 17 2 7 9
M  V30 18 2 7 10
M  V30 19 1 11 12
M  V30 20 2 11 27
M  V30 21 1 12 13
M  V30 22 1 12 16
M  V30 23 1 13 14
M  V30 24 1 13 35
M  V30 25 1 13 36
M  V30 26 1 14 15
M  V30 27 1 14 37
M  V30 28 1 14 38
M  V30 29 1 15 16
M  V30 30 1 15 17
M  V30 31 1 15 39
M  V30 32 1 16 40
M  V30 33 1 16 41
M  V30 34 1 17 18
M  V30 35 1 17 42
M  V30 36 1 18 19
M  V30 37 2 18 26
M  V30 38 1 19 20
M  V30 39 2 19 24
M  V30 40 1 20 21
M  V30 41 2 20 25
M  V30 42 2 21 22
M  V30 43 1 21 43
M  V30 44 1 22 23
M  V30 45 1 22 44
M  V30 46 1 23 24
M  V30 47 1 23 45
M  V30 END BOND
M  V30 END CTAB
M  END
> <s_m_entry_id>
28

> <i_f3d_flags>
0

> <r_lp_tautomer_probability>
0.999746388232414

> <r_epik_Ionization_Penalty>
  0.4743

> <r_epik_State_Penalty>
  0.0683

> <i_epik_Tot_Q>
0

> <r_i_docking_score>
-6.1994404067966

> <r_i_glide_gscore>
-6.2677404067966

> <r_i_glide_emodel>
-59.3477868353578

> <s_m_subgroup_title>
nsp13-core1_lib_top-500_pv

> <s_m_subgroupid>
nsp13-core1_lib_top-500_pv

> <b_m_subgroup_collapsed>
0

$$$$
Core_1_EN300-26667496_EN300-26667496
                    3D
 Schrodinger Suite 2023-1.
  0  0  0     0  0            999 V3000
M  V30 BEGIN CTAB
M  V30 COUNTS 44 48 0 0 0
M  V30 BEGIN ATOM
M  V30 1 C  -39.7883 35.5934 -3.6057 0
M  V30 2 C  -39.5485 37.0910 -3.7531 0
M  V30 3 N  -40.5347 37.7678 -2.9127 0
M  V30 4 C  -41.2758 36.7943 -2.1051 0
M  V30 5 C  -40.5540 35.4470 -2.2941 0 CFG=1
M  V30 6 N  -41.3839 34.2412 -2.2748 0
M  V30 7 C  -42.4733 33.9751 -3.0132 0
M  V30 8 C  -42.7849 32.5511 -3.1999 0
M  V30 9 C  -42.3526 31.4377 -2.4782 0
M  V30 10 C  -42.8855 30.4241 -3.2079 0
M  V30 11 C  -43.5823 30.8761 -4.2181 0
M  V30 12 C  -44.0579 29.8012 -5.0045 0
M  V30 13 C  -43.5508 28.6811 -4.3528 0
M  V30 14 N  -42.8205 29.0650 -3.2099 0
M  V30 15 O  -43.5984 32.2173 -4.2897 0
M  V30 16 O  -43.1299 34.8250 -3.6103 0
M  V30 17 C  -40.7436 39.1025 -2.8066 0
M  V30 18 C  -39.8582 40.1339 -3.5448 0 CFG=1
M  V30 19 C  -38.3520 40.1308 -3.1393 0
M  V30 20 C  -37.5326 39.8905 -4.4416 0
M  V30 21 C  -38.5735 39.8217 -5.4914 0
M  V30 22 N  -38.5421 39.6451 -6.8104 0
M  V30 23 N  -39.8868 39.6947 -7.1859 0
M  V30 24 C  -40.5677 39.8837 -6.0451 0
M  V30 25 N  -39.7756 39.9477 -4.9672 0
M  V30 26 O  -41.6395 39.5466 -2.0888 0
M  V30 27 H  -38.8595 35.0190 -3.6182 0
M  V30 28 H  -40.3881 35.2530 -4.4505 0
M  V30 29 H  -38.5494 37.3426 -3.4069 0
M  V30 30 H  -39.6215 37.3619 -4.8047 0
M  V30 31 H  -42.3084 36.7914 -2.4466 0
M  V30 32 H  -41.2873 37.0765 -1.0510 0
M  V30 33 H  -39.8205 35.3510 -1.4926 0
M  V30 34 H  -40.9687 33.4473 -1.8088 0
M  V30 35 H  -41.7153 31.3849 -1.6077 0
M  V30 36 H  -44.6413 29.8243 -5.9133 0
M  V30 37 H  -43.6440 27.6337 -4.6021 0
M  V30 38 H  -42.3517 28.4680 -2.5366 0
M  V30 39 H  -40.2755 41.1264 -3.3755 0
M  V30 40 H  -38.0868 41.0993 -2.7113 0
M  V30 41 H  -38.1169 39.3843 -2.3801 0
M  V30 42 H  -36.8451 40.7085 -4.6520 0
M  V30 43 H  -36.9738 38.9552 -4.4130 0
M  V30 44 H  -41.6441 39.9618 -5.9989 0
M  V30 END ATOM
M  V30 BEGIN BOND
M  V30 1 1 1 2
M  V30 2 1 1 5
M  V30 3 1 1 27
M  V30 4 1 1 28
M  V30 5 1 2 3
M  V30 6 1 2 29
M  V30 7 1 2 30
M  V30 8 1 3 4
M  V30 9 1 3 17
M  V30 10 1 4 5
M  V30 11 1 4 31
M  V30 12 1 4 32
M  V30 13 1 5 6
M  V30 14 1 5 33
M  V30 15 1 6 7
M  V30 16 1 6 34
M  V30 17 1 7 8
M  V30 18 2 7 16
M  V30 19 2 8 9
M  V30 20 1 8 15
M  V30 21 1 9 10
M  V30 22 1 9 35
M  V30 23 2 10 11
M  V30 24 1 10 14
M  V30 25 1 11 12
M  V30 26 1 11 15
M  V30 27 2 12 13
M  V30 28 1 12 36
M  V30 29 1 13 14
M  V30 30 1 13 37
M  V30 31 1 14 38
M  V30 32 1 17 18
M  V30 33 2 17 26
M  V30 34 1 18 19
M  V30 35 1 18 25
M  V30 36 1 18 39
M  V30 37 1 19 20
M  V30 38 1 19 40
M  V30 39 1 19 41
M  V30 40 1 20 21
M  V30 41 1 20 42
M  V30 42 1 20 43
M  V30 43 2 21 22
M  V30 44 1 21 25
M  V30 45 1 22 23
M  V30 46 2 23 24
M  V30 47 1 24 25
M  V30 48 1 24 44
M  V30 END BOND
M  V30 END CTAB
M  END
> <s_m_entry_id>
29

> <i_f3d_flags>
0

> <r_lp_tautomer_probability>
1

> <r_epik_Ionization_Penalty>
  0.0000

> <r_epik_State_Penalty>
  0.0000

> <i_epik_Tot_Q>
0

> <r_i_docking_score>
-6.19516160630129

> <r_i_glide_gscore>
-6.19516160630129

> <r_i_glide_emodel>
-54.6224225293901

> <s_m_subgroup_title>
nsp13-core1_lib_top-500_pv

> <s_m_subgroupid>
nsp13-core1_lib_top-500_pv

> <b_m_subgroup_collapsed>
0

$$$$
Core_1_EN300-26632221_EN300-26632221
                    3D
 Schrodinger Suite 2023-1.
  0  0  0     0  0            999 V3000
M  V30 BEGIN CTAB
M  V30 COUNTS 38 40 0 0 0
M  V30 BEGIN ATOM
M  V30 1 C  -47.4623 31.6478 0.1174 0
M  V30 2 C  -48.7853 30.9496 -0.2127 0
M  V30 3 N  -48.6023 29.5214 0.0387 0
M  V30 4 C  -47.2240 29.2219 0.4183 0
M  V30 5 C  -46.5368 30.5669 0.6967 0 CFG=1
M  V30 6 N  -45.1514 30.6162 0.2138 0
M  V30 7 C  -44.7425 30.5607 -1.0647 0
M  V30 8 C  -43.2199 30.5864 -1.2999 0
M  V30 9 N  -42.7929 30.3744 -2.6978 0 CFG=1
M  V30 10 N  -42.9200 29.0916 -3.1560 0
M  V30 11 C  -43.3268 29.1768 -4.4125 0
M  V30 12 N  -43.4803 30.6288 -4.7202 0
M  V30 13 N  -43.1751 31.2524 -3.6771 0
M  V30 14 O  -43.5527 28.2725 -5.2115 0
M  V30 15 O  -45.5315 30.4979 -2.0113 0
M  V30 16 C  -49.5695 28.5774 0.0047 0
M  V30 17 C  -50.9684 28.9221 -0.5334 0
M  V30 18 C  -51.1764 28.3873 -1.9186 0
M  V30 19 N  -51.8184 27.2044 -2.1690 0
M  V30 20 C  -51.8335 27.2278 -3.4967 0
M  V30 21 N  -51.2627 28.3140 -4.0101 0
M  V30 22 N  -50.8038 29.0838 -2.9961 0
M  V30 23 O  -49.3590 27.4259 0.3875 0
M  V30 24 H  -47.6125 32.4497 0.8402 0
M  V30 25 H  -47.0615 32.1175 -0.7798 0
M  V30 26 H  -49.5785 31.3450 0.4239 0
M  V30 27 H  -49.0657 31.1167 -1.2546 0
M  V30 28 H  -46.7577 28.6836 -0.4077 0
M  V30 29 H  -47.1726 28.5773 1.2979 0
M  V30 30 H  -46.5015 30.7062 1.7774 0
M  V30 31 H  -44.4332 30.6833 0.9407 0
M  V30 32 H  -42.7477 29.8401 -0.6592 0
M  V30 33 H  -42.8400 31.5527 -0.9669 0
M  V30 34 H  -51.7089 28.4754 0.1306 0
M  V30 35 H  -51.1729 29.9918 -0.5269 0
M  V30 36 H  -52.2758 26.4487 -4.0989 0
M  V30 37 H  -51.1517 28.5618 -5.0102 0
M  V30 38 H  -42.6742 28.3034 -2.5668 0
M  V30 END ATOM
M  V30 BEGIN BOND
M  V30 1 1 1 2
M  V30 2 1 1 5
M  V30 3 1 1 24
M  V30 4 1 1 25
M  V30 5 1 2 3
M  V30 6 1 2 26
M  V30 7 1 2 27
M  V30 8 1 3 4
M  V30 9 1 3 16
M  V30 10 1 4 5
M  V30 11 1 4 28
M  V30 12 1 4 29
M  V30 13 1 5 6
M  V30 14 1 5 30
M  V30 15 1 6 7
M  V30 16 1 6 31
M  V30 17 1 7 8
M  V30 18 2 7 15
M  V30 19 1 8 9
M  V30 20 1 8 32
M  V30 21 1 8 33
M  V30 22 1 9 10
M  V30 23 1 9 13
M  V30 24 1 10 11
M  V30 25 1 10 38
M  V30 26 1 11 12
M  V30 27 2 11 14
M  V30 28 2 12 13
M  V30 29 1 16 17
M  V30 30 2 16 23
M  V30 31 1 17 18
M  V30 32 1 17 34
M  V30 33 1 17 35
M  V30 34 1 18 19
M  V30 35 2 18 22
M  V30 36 2 19 20
M  V30 37 1 20 21
M  V30 38 1 20 36
M  V30 39 1 21 22
M  V30 40 1 21 37
M  V30 END BOND
M  V30 END CTAB
M  END
> <s_m_entry_id>
30

> <i_f3d_flags>
0

> <r_lp_tautomer_probability>
0.948284485345604

> <r_epik_Ionization_Penalty>
 27.7321

> <r_epik_State_Penalty>
  0.0315

> <i_epik_Tot_Q>
0

> <r_i_docking_score>
-6.19411494955895

> <r_i_glide_gscore>
-6.22561494955895

> <r_i_glide_emodel>
-58.7621164861442

> <s_m_subgroup_title>
nsp13-core1_lib_top-500_pv

> <s_m_subgroupid>
nsp13-core1_lib_top-500_pv

> <b_m_subgroup_collapsed>
0

$$$$
Core_1_EN300-125543_EN300-125543
                    3D
 Schrodinger Suite 2023-1.
  0  0  0     0  0            999 V3000
M  V30 BEGIN CTAB
M  V30 COUNTS 38 40 0 0 0
M  V30 BEGIN ATOM
M  V30 1 C  -40.6511 34.5910 -0.0034 0
M  V30 2 C  -41.4118 34.6865 -1.3221 0
M  V30 3 N  -41.9582 33.3566 -1.5844 0
M  V30 4 C  -41.8577 32.5425 -0.3638 0
M  V30 5 C  -41.3247 33.4479 0.7591 0 CFG=1
M  V30 6 N  -40.4359 32.6838 1.6353 0
M  V30 7 C  -39.4149 33.1198 2.3901 0
M  V30 8 C  -38.5651 32.0331 3.0488 0
M  V30 9 N  -38.8579 31.9128 4.4805 0 CFG=1
M  V30 10 N  -39.5513 30.7800 4.7899 0
M  V30 11 C  -39.0344 30.2943 5.9043 0
M  V30 12 N  -37.9230 31.2133 6.2909 0
M  V30 13 N  -37.8543 32.0870 5.3942 0
M  V30 14 O  -39.3545 29.2804 6.5209 0
M  V30 15 O  -39.1158 34.3046 2.5273 0
M  V30 16 C  -42.5504 33.0643 -2.7768 0
M  V30 17 C  -42.9404 31.6443 -3.1091 0
M  V30 18 C  -43.9475 31.3907 -4.2068 0
M  V30 19 C  -44.1138 29.9791 -4.6068 0
M  V30 20 C  -43.4803 29.0266 -3.9051 0
M  V30 21 N  -42.6673 29.3366 -2.8137 0
M  V30 22 N  -42.3869 30.6409 -2.4927 0
M  V30 23 O  -44.6183 32.2795 -4.7277 0
M  V30 24 O  -42.7302 33.9588 -3.6104 0
M  V30 25 H  -40.6597 35.5290 0.5510 0
M  V30 26 H  -39.6113 34.3451 -0.2182 0
M  V30 27 H  -42.2352 35.3970 -1.2365 0
M  V30 28 H  -40.7573 35.0268 -2.1270 0
M  V30 29 H  -41.1515 31.7304 -0.5401 0
M  V30 30 H  -42.8160 32.0998 -0.0864 0
M  V30 31 H  -42.1634 33.8362 1.3396 0
M  V30 32 H  -40.6774 31.6993 1.7578 0
M  V30 33 H  -37.5134 32.2845 2.9033 0
M  V30 34 H  -38.7179 31.0840 2.5309 0
M  V30 35 H  -44.7394 29.7417 -5.4553 0
M  V30 36 H  -43.5426 27.9705 -4.1236 0
M  V30 37 H  -42.2919 28.6126 -2.1958 0
M  V30 38 H  -40.2645 30.4234 4.1507 0
M  V30 END ATOM
M  V30 BEGIN BOND
M  V30 1 1 1 2
M  V30 2 1 1 5
M  V30 3 1 1 25
M  V30 4 1 1 26
M  V30 5 1 2 3
M  V30 6 1 2 27
M  V30 7 1 2 28
M  V30 8 1 3 4
M  V30 9 1 3 16
M  V30 10 1 4 5
M  V30 11 1 4 29
M  V30 12 1 4 30
M  V30 13 1 5 6
M  V30 14 1 5 31
M  V30 15 1 6 7
M  V30 16 1 6 32
M  V30 17 1 7 8
M  V30 18 2 7 15
M  V30 19 1 8 9
M  V30 20 1 8 33
M  V30 21 1 8 34
M  V30 22 1 9 10
M  V30 23 1 9 13
M  V30 24 1 10 11
M  V30 25 1 10 38
M  V30 26 1 11 12
M  V30 27 2 11 14
M  V30 28 2 12 13
M  V30 29 1 16 17
M  V30 30 2 16 24
M  V30 31 1 17 18
M  V30 32 2 17 22
M  V30 33 1 18 19
M  V30 34 2 18 23
M  V30 35 2 19 20
M  V30 36 1 19 35
M  V30 37 1 20 21
M  V30 38 1 20 36
M  V30 39 1 21 22
M  V30 40 1 21 37
M  V30 END BOND
M  V30 END CTAB
M  END
> <s_m_entry_id>
31

> <i_f3d_flags>
0

> <r_lp_tautomer_probability>
1

> <r_epik_Ionization_Penalty>
 28.0729

> <r_epik_State_Penalty>
  0.0000

> <i_epik_Tot_Q>
0

> <r_i_docking_score>
-6.19058060139012

> <r_i_glide_gscore>
-6.19058060139012

> <r_i_glide_emodel>
-52.0005416254749

> <s_m_subgroup_title>
nsp13-core1_lib_top-500_pv

> <s_m_subgroupid>
nsp13-core1_lib_top-500_pv

> <b_m_subgroup_collapsed>
0

$$$$
Core_1_EN300-51887_EN300-51887
                    3D
 Schrodinger Suite 2023-1.
  0  0  0     0  0            999 V3000
M  V30 BEGIN CTAB
M  V30 COUNTS 43 45 0 0 0
M  V30 BEGIN ATOM
M  V30 1 C  -42.3091 29.6961 -3.8007 0
M  V30 2 N  -42.7594 29.6959 -2.4103 0 CFG=1
M  V30 3 S  -44.3199 30.2814 -1.9749 0
M  V30 4 C  -43.9856 31.9984 -1.3924 0
M  V30 5 C  -43.5012 32.9213 -2.5245 0
M  V30 6 N  -42.4194 33.6991 -2.3110 0
M  V30 7 C  -41.7512 33.8895 -1.0273 0
M  V30 8 C  -40.8684 35.1195 -1.1982 0
M  V30 9 C  -40.5832 35.2014 -2.7022 0 CFG=1
M  V30 10 C  -41.8217 34.5532 -3.3371 0
M  V30 11 N  -40.3706 36.5565 -3.2108 0
M  V30 12 C  -39.5513 37.4834 -2.6814 0
M  V30 13 C  -39.4036 38.8229 -3.4305 0 CFG=1
M  V30 14 C  -38.0010 39.4495 -3.2964 0 CFG=2
M  V30 15 C  -37.6355 40.7972 -3.8852 0
M  V30 16 C  -37.4110 39.5297 -4.6737 0 CFG=2
M  V30 17 C  -38.4880 39.0831 -5.5860 0
M  V30 18 N  -39.5514 38.6837 -4.8780 0
M  V30 19 O  -38.4163 39.0839 -6.8102 0
M  V30 20 O  -38.9253 37.2985 -1.6372 0
M  V30 21 O  -44.1097 32.9407 -3.5963 0
M  V30 22 O  -45.1513 30.3081 -3.1911 0
M  V30 23 O  -44.7512 29.4953 -0.8100 0
M  V30 24 H  -41.2420 29.4838 -3.8442 0
M  V30 25 H  -42.4867 30.6687 -4.2576 0
M  V30 26 H  -42.8452 28.9362 -4.3696 0
M  V30 27 H  -42.4532 28.8968 -1.8419 0
M  V30 28 H  -44.9105 32.3948 -0.9778 0
M  V30 29 H  -43.2823 31.9051 -0.5669 0
M  V30 30 H  -42.4554 34.0374 -0.2075 0
M  V30 31 H  -41.1466 33.0084 -0.8044 0
M  V30 32 H  -41.4233 35.9998 -0.8719 0
M  V30 33 H  -39.9606 35.0590 -0.5962 0
M  V30 34 H  -39.7034 34.5996 -2.9360 0
M  V30 35 H  -41.5522 33.9772 -4.2229 0
M  V30 36 H  -42.5552 35.3085 -3.6248 0
M  V30 37 H  -40.8296 36.7874 -4.0828 0
M  V30 38 H  -40.1596 39.5110 -3.0542 0
M  V30 39 H  -37.3637 39.0856 -2.4908 0
M  V30 40 H  -38.4549 41.4522 -4.1763 0
M  V30 41 H  -36.7514 41.3022 -3.5015 0
M  V30 42 H  -36.4122 39.1182 -4.8030 0
M  V30 43 H  -40.3937 38.3211 -5.3077 0
M  V30 END ATOM
M  V30 BEGIN BOND
M  V30 1 1 1 2
M  V30 2 1 1 24
M  V30 3 1 1 25
M  V30 4 1 1 26
M  V30 5 1 2 3
M  V30 6 1 2 27
M  V30 7 1 3 4
M  V30 8 2 3 22
M  V30 9 2 3 23
M  V30 10 1 4 5
M  V30 11 1 4 28
M  V30 12 1 4 29
M  V30 13 1 5 6
M  V30 14 2 5 21
M  V30 15 1 6 7
M  V30 16 1 6 10
M  V30 17 1 7 8
M  V30 18 1 7 30
M  V30 19 1 7 31
M  V30 20 1 8 9
M  V30 21 1 8 32
M  V30 22 1 8 33
M  V30 23 1 9 10
M  V30 24 1 9 11
M  V30 25 1 9 34
M  V30 26 1 10 35
M  V30 27 1 10 36
M  V30 28 1 11 12
M  V30 29 1 11 37
M  V30 30 1 12 13
M  V30 31 2 12 20
M  V30 32 1 13 14
M  V30 33 1 13 18
M  V30 34 1 13 38
M  V30 35 1 14 15
M  V30 36 1 14 16
M  V30 37 1 14 39
M  V30 38 1 15 16
M  V30 39 1 15 40
M  V30 40 1 15 41
M  V30 41 1 16 17
M  V30 42 1 16 42
M  V30 43 1 17 18
M  V30 44 2 17 19
M  V30 45 1 18 43
M  V30 END BOND
M  V30 END CTAB
M  END
> <s_m_entry_id>
32

> <i_f3d_flags>
0

> <r_epik_Ionization_Penalty>
  0.0003

> <r_epik_State_Penalty>
  0.0003

> <i_epik_Tot_Q>
0

> <r_i_docking_score>
-6.18622432268177

> <r_i_glide_gscore>
-6.18652432268177

> <r_i_glide_emodel>
-56.9629366175728

> <s_m_subgroup_title>
nsp13-core1_lib_top-500_pv

> <s_m_subgroupid>
nsp13-core1_lib_top-500_pv

> <b_m_subgroup_collapsed>
0

$$$$
Core_1_EN300-748857_EN300-748857
                    3D
 Schrodinger Suite 2023-1.
  0  0  0     0  0            999 V3000
M  V30 BEGIN CTAB
M  V30 COUNTS 47 51 0 0 0
M  V30 BEGIN ATOM
M  V30 1 C  -39.7996 35.2872 -3.2367 0
M  V30 2 C  -40.7590 34.1012 -3.1467 0
M  V30 3 N  -42.0982 34.6726 -3.0327 0
M  V30 4 C  -42.0274 36.1091 -2.7636 0
M  V30 5 C  -40.5433 36.4473 -2.5745 0 CFG=1
M  V30 6 N  -40.2585 36.5560 -1.1484 0
M  V30 7 C  -39.1455 37.0340 -0.5774 0
M  V30 8 C  -39.1002 36.9937 0.9505 0
M  V30 9 C  -39.0056 35.5756 1.4418 0
M  V30 10 C  -37.8209 34.9613 1.7934 0
M  V30 11 S  -38.0348 33.3155 2.3612 0
M  V30 12 C  -39.7315 33.4870 2.1001 0
M  V30 13 N  -40.7693 32.6838 2.3102 0
M  V30 14 C  -41.9558 33.3853 1.8351 0
M  V30 15 C  -41.4907 34.7998 1.4584 0
M  V30 16 N  -40.0565 34.6837 1.6381 0 CHG=1
M  V30 17 O  -38.1965 37.4875 -1.2103 0
M  V30 18 C  -43.2701 34.0138 -3.1639 0
M  V30 19 C  -43.2548 32.5561 -3.4088 0
M  V30 20 C  -42.5573 31.5350 -2.7583 0
M  V30 21 C  -42.9824 30.4372 -3.4372 0
M  V30 22 C  -43.8450 30.7585 -4.3652 0
M  V30 23 C  -44.2642 29.6013 -5.0640 0
M  V30 24 C  -43.5512 28.5789 -4.4435 0
M  V30 25 N  -42.7551 29.0941 -3.4002 0
M  V30 26 O  -44.1049 32.0776 -4.4118 0
M  V30 27 O  -44.3513 34.5970 -3.1281 0
M  V30 28 H  -39.6341 35.5295 -4.2878 0
M  V30 29 H  -38.8211 35.0838 -2.7999 0
M  V30 30 H  -40.6595 33.4422 -4.0102 0
M  V30 31 H  -40.5565 33.5244 -2.2455 0
M  V30 32 H  -42.6356 36.3881 -1.9008 0
M  V30 33 H  -42.4268 36.6492 -3.6224 0
M  V30 34 H  -40.2962 37.3958 -3.0547 0
M  V30 35 H  -40.9761 36.2183 -0.5260 0
M  V30 36 H  -39.9915 37.4812 1.3465 0
M  V30 37 H  -38.2506 37.5827 1.2987 0
M  V30 38 H  -36.8276 35.3847 1.7639 0
M  V30 39 H  -42.3655 32.8571 0.9731 0
M  V30 40 H  -42.7206 33.4030 2.6120 0
M  V30 41 H  -41.7275 35.0429 0.4245 0
M  V30 42 H  -41.8727 35.5670 2.1327 0
M  V30 43 H  -41.8604 31.5954 -1.9355 0
M  V30 44 H  -44.9558 29.5131 -5.8889 0
M  V30 45 H  -43.5460 27.5175 -4.6451 0
M  V30 46 H  -42.1674 28.5807 -2.7531 0
M  V30 47 H  -40.7514 31.6540 2.3898 0
M  V30 END ATOM
M  V30 BEGIN BOND
M  V30 1 1 1 2
M  V30 2 1 1 5
M  V30 3 1 1 28
M  V30 4 1 1 29
M  V30 5 1 2 3
M  V30 6 1 2 30
M  V30 7 1 2 31
M  V30 8 1 3 4
M  V30 9 1 3 18
M  V30 10 1 4 5
M  V30 11 1 4 32
M  V30 12 1 4 33
M  V30 13 1 5 6
M  V30 14 1 5 34
M  V30 15 1 6 7
M  V30 16 1 6 35
M  V30 17 1 7 8
M  V30 18 2 7 17
M  V30 19 1 8 9
M  V30 20 1 8 36
M  V30 21 1 8 37
M  V30 22 2 9 10
M  V30 23 1 9 16
M  V30 24 1 10 11
M  V30 25 1 10 38
M  V30 26 1 11 12
M  V30 27 1 12 13
M  V30 28 2 12 16
M  V30 29 1 13 14
M  V30 30 1 13 47
M  V30 31 1 14 15
M  V30 32 1 14 39
M  V30 33 1 14 40
M  V30 34 1 15 16
M  V30 35 1 15 41
M  V30 36 1 15 42
M  V30 37 1 18 19
M  V30 38 2 18 27
M  V30 39 2 19 20
M  V30 40 1 19 26
M  V30 41 1 20 21
M  V30 42 1 20 43
M  V30 43 2 21 22
M  V30 44 1 21 25
M  V30 45 1 22 23
M  V30 46 1 22 26
M  V30 47 2 23 24
M  V30 48 1 23 44
M  V30 49 1 24 25
M  V30 50 1 24 45
M  V30 51 1 25 46
M  V30 END BOND
M  V30 END CTAB
M  END
> <s_m_entry_id>
33

> <i_f3d_flags>
0

> <r_lp_tautomer_probability>
1

> <r_epik_Ionization_Penalty>
  0.0018

> <r_epik_State_Penalty>
  0.0018

> <i_epik_Tot_Q>
1

> <r_i_docking_score>
-6.18541838465101

> <r_i_glide_gscore>
-6.18721838465101

> <r_i_glide_emodel>
-61.1281001725985

> <s_m_subgroup_title>
nsp13-core1_lib_top-500_pv

> <s_m_subgroupid>
nsp13-core1_lib_top-500_pv

> <b_m_subgroup_collapsed>
0

$$$$
Core_1_EN300-98620_EN300-98620
                    3D
 Schrodinger Suite 2023-1.
  0  0  0     0  0            999 V3000
M  V30 BEGIN CTAB
M  V30 COUNTS 53 56 0 0 0
M  V30 BEGIN ATOM
M  V30 1 C  -40.7601 40.0464 -3.4285 0
M  V30 2 C  -39.6866 38.9919 -3.7739 0 CFG=2
M  V30 3 C  -38.2772 39.4861 -3.4579 0
M  V30 4 N  -37.5840 39.5288 -4.5932 0
M  V30 5 C  -38.3190 39.1692 -5.6461 0
M  V30 6 N  -39.5520 38.8985 -5.2172 0
M  V30 7 O  -37.9455 39.0839 -6.8089 0
M  V30 8 O  -37.8705 39.7872 -2.3388 0
M  V30 9 C  -39.9185 37.6165 -3.1230 0
M  V30 10 C  -39.5516 36.4288 -3.8008 0
M  V30 11 C  -39.7405 35.1755 -3.2031 0
M  V30 12 C  -40.2869 35.0852 -1.9112 0
M  V30 13 C  -40.6876 36.2508 -1.2182 0
M  V30 14 C  -40.4821 37.5110 -1.8272 0
M  V30 15 C  -41.2284 36.1860 0.1881 0
M  V30 16 N  -42.2126 35.3027 0.4791 0
M  V30 17 C  -42.7844 35.1757 1.8182 0
M  V30 18 C  -43.6493 33.9142 1.7994 0
M  V30 19 C  -44.0233 33.7062 0.3344 0 CFG=1
M  V30 20 C  -42.8964 34.4000 -0.4446 0
M  V30 21 N  -44.1116 32.2858 -0.0114 0
M  V30 22 C  -44.4232 31.8342 -1.2375 0
M  V30 23 C  -44.3537 30.3179 -1.4614 0
M  V30 24 C  -44.0926 29.9298 -2.8925 0
M  V30 25 C  -44.7145 30.2294 -4.0797 0
M  V30 26 C  -44.0877 29.4892 -5.1210 0
M  V30 27 C  -43.0712 28.7737 -4.5607 0
M  V30 28 N  -43.0758 29.0531 -3.2107 0
M  V30 29 O  -44.7515 32.5867 -2.1594 0
M  V30 30 O  -40.7840 36.9671 1.0286 0
M  V30 31 H  -40.7693 40.2999 -2.3690 0
M  V30 32 H  -40.5868 40.9782 -3.9682 0
M  V30 33 H  -41.7572 39.6940 -3.6966 0
M  V30 34 H  -36.6146 39.7982 -4.6459 0
M  V30 35 H  -40.2923 38.5256 -5.7977 0
M  V30 36 H  -39.1088 36.4534 -4.7847 0
M  V30 37 H  -39.4273 34.2826 -3.7219 0
M  V30 38 H  -40.3510 34.1114 -1.4514 0
M  V30 39 H  -40.7546 38.3995 -1.2778 0
M  V30 40 H  -43.3919 36.0582 2.0291 0
M  V30 41 H  -42.0117 35.1106 2.5854 0
M  V30 42 H  -44.5232 33.9974 2.4489 0
M  V30 43 H  -43.0463 33.0835 2.1634 0
M  V30 44 H  -44.9732 34.2046 0.1281 0
M  V30 45 H  -42.1986 33.6353 -0.7839 0
M  V30 46 H  -43.2764 34.9280 -1.3229 0
M  V30 47 H  -43.8323 31.6205 0.7094 0
M  V30 48 H  -45.2971 29.8825 -1.1322 0
M  V30 49 H  -43.5835 29.8991 -0.8110 0
M  V30 50 H  -45.5503 30.8932 -4.2067 0
M  V30 51 H  -44.3504 29.4785 -6.1688 0
M  V30 52 H  -42.3520 28.0941 -4.9945 0
M  V30 53 H  -42.4520 28.6256 -2.5344 0
M  V30 END ATOM
M  V30 BEGIN BOND
M  V30 1 1 1 2
M  V30 2 1 1 31
M  V30 3 1 1 32
M  V30 4 1 1 33
M  V30 5 1 2 3
M  V30 6 1 2 9
M  V30 7 1 2 6
M  V30 8 1 3 4
M  V30 9 2 3 8
M  V30 10 1 4 5
M  V30 11 1 4 34
M  V30 12 1 5 6
M  V30 13 2 5 7
M  V30 14 1 6 35
M  V30 15 2 9 10
M  V30 16 1 9 14
M  V30 17 1 10 11
M  V30 18 1 10 36
M  V30 19 2 11 12
M  V30 20 1 11 37
M  V30 21 1 12 13
M  V30 22 1 12 38
M  V30 23 2 13 14
M  V30 24 1 13 15
M  V30 25 1 14 39
M  V30 26 1 15 16
M  V30 27 2 15 30
M  V30 28 1 16 17
M  V30 29 1 16 20
M  V30 30 1 17 18
M  V30 31 1 17 40
M  V30 32 1 17 41
M  V30 33 1 18 19
M  V30 34 1 18 42
M  V30 35 1 18 43
M  V30 36 1 19 20
M  V30 37 1 19 21
M  V30 38 1 19 44
M  V30 39 1 20 45
M  V30 40 1 20 46
M  V30 41 1 21 22
M  V30 42 1 21 47
M  V30 43 1 22 23
M  V30 44 2 22 29
M  V30 45 1 23 24
M  V30 46 1 23 48
M  V30 47 1 23 49
M  V30 48 2 24 25
M  V30 49 1 24 28
M  V30 50 1 25 26
M  V30 51 1 25 50
M  V30 52 2 26 27
M  V30 53 1 26 51
M  V30 54 1 27 28
M  V30 55 1 27 52
M  V30 56 1 28 53
M  V30 END BOND
M  V30 END CTAB
M  END
> <s_m_entry_id>
35

> <i_f3d_flags>
0

> <r_lp_tautomer_probability>
0.99999999978137

> <r_epik_Ionization_Penalty>
  0.0233

> <r_epik_State_Penalty>
  0.0231

> <i_epik_Tot_Q>
0

> <r_i_docking_score>
-6.18338120534644

> <r_i_glide_gscore>
-6.20648120534644

> <r_i_glide_emodel>
-56.850124543229

> <s_m_subgroup_title>
nsp13-core1_lib_top-500_pv

> <s_m_subgroupid>
nsp13-core1_lib_top-500_pv

> <b_m_subgroup_collapsed>
0

$$$$
Core_1_EN300-6763072_EN300-6763072
                    3D
 Schrodinger Suite 2023-1.
  0  0  0     0  0            999 V3000
M  V30 BEGIN CTAB
M  V30 COUNTS 48 52 0 0 0
M  V30 BEGIN ATOM
M  V30 1 C  -40.2838 35.6252 -0.8071 0
M  V30 2 C  -39.4731 36.8918 -1.0869 0
M  V30 3 N  -39.7243 37.2450 -2.4822 0
M  V30 4 C  -40.7266 36.3598 -3.0701 0
M  V30 5 C  -41.3486 35.5882 -1.9002 0 CFG=1
M  V30 6 N  -41.6993 34.2233 -2.2647 0
M  V30 7 C  -42.7203 33.8785 -3.0629 0
M  V30 8 C  -42.8799 32.4389 -3.3113 0
M  V30 9 C  -42.3933 31.3571 -2.5855 0
M  V30 10 C  -42.8691 30.2509 -3.3224 0
M  V30 11 C  -43.5636 30.7137 -4.3363 0
M  V30 12 C  -44.0381 29.6654 -5.0813 0
M  V30 13 C  -43.5496 28.5351 -4.4225 0
M  V30 14 N  -42.8179 28.9260 -3.2900 0
M  V30 15 O  -43.6472 32.0507 -4.4124 0
M  V30 16 O  -43.4632 34.6924 -3.6080 0
M  V30 17 C  -39.1442 38.2988 -3.0964 0
M  V30 18 C  -39.5153 38.5737 -4.5609 0
M  V30 19 S  -38.3074 39.5936 -5.5316 0
M  V30 20 C  -39.4640 40.5596 -6.5859 0
M  V30 21 C  -39.0602 41.5484 -7.6760 0
M  V30 22 C  -40.6081 41.5470 -7.6105 0
M  V30 23 C  -40.4774 41.5850 -6.0705 0
M  V30 24 C  -40.5347 39.9994 -7.5169 0
M  V30 25 O  -37.5523 38.6859 -6.4102 0
M  V30 26 O  -37.5969 40.5473 -4.6716 0
M  V30 27 O  -38.3512 39.0271 -2.5046 0
M  V30 28 H  -39.6230 34.7597 -0.8829 0
M  V30 29 H  -40.7163 35.6225 0.1958 0
M  V30 30 H  -38.4101 36.7334 -0.9000 0
M  V30 31 H  -39.8073 37.7100 -0.4469 0
M  V30 32 H  -41.4972 36.9077 -3.6118 0
M  V30 33 H  -40.2304 35.6855 -3.7697 0
M  V30 34 H  -42.2343 36.1230 -1.5477 0
M  V30 35 H  -41.1270 33.4831 -1.8879 0
M  V30 36 H  -41.7914 31.3751 -1.6884 0
M  V30 37 H  -44.6365 29.7061 -5.9785 0
M  V30 38 H  -43.6636 27.4888 -4.6611 0
M  V30 39 H  -42.3687 28.3299 -2.6018 0
M  V30 40 H  -40.4921 39.0556 -4.5869 0
M  V30 41 H  -39.5855 37.6326 -5.1022 0
M  V30 42 H  -38.6043 41.1178 -8.5704 0
M  V30 43 H  -38.5535 42.4547 -7.3388 0
M  V30 44 H  -41.2917 42.1363 -8.2247 0
M  V30 45 H  -40.0605 42.4942 -5.6366 0
M  V30 46 H  -41.3214 41.1900 -5.5033 0
M  V30 47 H  -41.3797 39.4969 -7.0395 0
M  V30 48 H  -40.1825 39.4839 -8.4092 0
M  V30 END ATOM
M  V30 BEGIN BOND
M  V30 1 1 1 2
M  V30 2 1 1 5
M  V30 3 1 1 28
M  V30 4 1 1 29
M  V30 5 1 2 3
M  V30 6 1 2 30
M  V30 7 1 2 31
M  V30 8 1 3 4
M  V30 9 1 3 17
M  V30 10 1 4 5
M  V30 11 1 4 32
M  V30 12 1 4 33
M  V30 13 1 5 6
M  V30 14 1 5 34
M  V30 15 1 6 7
M  V30 16 1 6 35
M  V30 17 1 7 8
M  V30 18 2 7 16
M  V30 19 2 8 9
M  V30 20 1 8 15
M  V30 21 1 9 10
M  V30 22 1 9 36
M  V30 23 2 10 11
M  V30 24 1 10 14
M  V30 25 1 11 12
M  V30 26 1 11 15
M  V30 27 2 12 13
M  V30 28 1 12 37
M  V30 29 1 13 14
M  V30 30 1 13 38
M  V30 31 1 14 39
M  V30 32 1 17 18
M  V30 33 2 17 27
M  V30 34 1 18 19
M  V30 35 1 18 40
M  V30 36 1 18 41
M  V30 37 1 19 20
M  V30 38 2 19 25
M  V30 39 2 19 26
M  V30 40 1 20 21
M  V30 41 1 20 23
M  V30 42 1 20 24
M  V30 43 1 21 22
M  V30 44 1 21 42
M  V30 45 1 21 43
M  V30 46 1 22 23
M  V30 47 1 22 24
M  V30 48 1 22 44
M  V30 49 1 23 45
M  V30 50 1 23 46
M  V30 51 1 24 47
M  V30 52 1 24 48
M  V30 END BOND
M  V30 END CTAB
M  END
> <s_m_entry_id>
36

> <i_f3d_flags>
0

> <r_lp_tautomer_probability>
1

> <r_epik_Ionization_Penalty>
  0.0000

> <r_epik_State_Penalty>
  0.0000

> <i_epik_Tot_Q>
0

> <r_i_docking_score>
-6.17185957487412

> <r_i_glide_gscore>
-6.17185957487412

> <r_i_glide_emodel>
-60.9435971275882

> <s_m_subgroup_title>
nsp13-core1_lib_top-500_pv

> <s_m_subgroupid>
nsp13-core1_lib_top-500_pv

> <b_m_subgroup_collapsed>
0

$$$$
Core_1_EN300-28893_EN300-28893
                    3D
 Schrodinger Suite 2023-1.
  0  0  0     0  0            999 V3000
M  V30 BEGIN CTAB
M  V30 COUNTS 48 52 0 0 0
M  V30 BEGIN ATOM
M  V30 1 C  -40.8066 35.0624 -1.3402 0
M  V30 2 C  -41.7216 33.8408 -1.3025 0
M  V30 3 N  -42.3493 33.7865 -2.6214 0
M  V30 4 C  -41.5772 34.5765 -3.5778 0
M  V30 5 C  -40.4200 35.2259 -2.8120 0 CFG=1
M  V30 6 N  -40.2456 36.6046 -3.2562 0
M  V30 7 C  -39.4813 37.5438 -2.6771 0
M  V30 8 C  -39.3303 38.8855 -3.4166 0 CFG=1
M  V30 9 C  -37.9162 39.4837 -3.3046 0 CFG=2
M  V30 10 C  -37.5168 40.8106 -3.9151 0
M  V30 11 C  -37.3394 39.5253 -4.6863 0 CFG=2
M  V30 12 C  -38.4369 39.1012 -5.5850 0
M  V30 13 N  -39.5064 38.7532 -4.8627 0
M  V30 14 O  -38.3754 39.0841 -6.8099 0
M  V30 15 O  -38.8997 37.3631 -1.6082 0
M  V30 16 C  -43.4829 33.1400 -2.9777 0
M  V30 17 C  -44.2334 32.3719 -1.9227 0
M  V30 18 C  -44.7708 33.0461 -0.8042 0
M  V30 19 C  -45.4768 32.3183 0.1694 0
M  V30 20 C  -45.6297 30.9339 -0.0117 0
M  V30 21 N  -45.1750 30.2849 -1.1022 0
M  V30 22 C  -44.4888 30.9779 -2.0363 0
M  V30 23 N  -44.1063 30.2596 -3.1882 0
M  V30 24 C  -42.9807 29.4883 -3.3827 0
M  V30 25 C  -43.0613 28.9723 -4.6455 0
M  V30 26 C  -44.2886 29.4815 -5.1464 0
M  V30 27 N  -44.9175 30.2447 -4.2691 0
M  V30 28 O  -43.9175 33.1636 -4.1294 0
M  V30 29 H  -39.9397 34.9522 -0.6861 0
M  V30 30 H  -41.3669 35.9354 -0.9974 0
M  V30 31 H  -41.1515 32.9241 -1.1569 0
M  V30 32 H  -42.4097 33.9292 -0.4647 0
M  V30 33 H  -42.2341 35.3369 -4.0071 0
M  V30 34 H  -41.2068 33.9528 -4.3918 0
M  V30 35 H  -39.4966 34.6839 -3.0106 0
M  V30 36 H  -40.6798 36.8447 -4.1377 0
M  V30 37 H  -40.0674 39.5862 -3.0222 0
M  V30 38 H  -37.2804 39.1072 -2.5040 0
M  V30 39 H  -38.3190 41.4891 -4.2019 0
M  V30 40 H  -36.6151 41.2925 -3.5443 0
M  V30 41 H  -36.3529 39.0859 -4.8230 0
M  V30 42 H  -40.3696 38.4252 -5.2796 0
M  V30 43 H  -44.6470 34.1136 -0.6903 0
M  V30 44 H  -45.8727 32.8038 1.0490 0
M  V30 45 H  -46.1550 30.3380 0.7191 0
M  V30 46 H  -42.2299 29.3682 -2.6133 0
M  V30 47 H  -42.3515 28.3229 -5.1356 0
M  V30 48 H  -44.7430 29.3116 -6.1112 0
M  V30 END ATOM
M  V30 BEGIN BOND
M  V30 1 1 1 2
M  V30 2 1 1 5
M  V30 3 1 1 29
M  V30 4 1 1 30
M  V30 5 1 2 3
M  V30 6 1 2 31
M  V30 7 1 2 32
M  V30 8 1 3 4
M  V30 9 1 3 16
M  V30 10 1 4 5
M  V30 11 1 4 33
M  V30 12 1 4 34
M  V30 13 1 5 6
M  V30 14 1 5 35
M  V30 15 1 6 7
M  V30 16 1 6 36
M  V30 17 1 7 8
M  V30 18 2 7 15
M  V30 19 1 8 9
M  V30 20 1 8 13
M  V30 21 1 8 37
M  V30 22 1 9 10
M  V30 23 1 9 11
M  V30 24 1 9 38
M  V30 25 1 10 11
M  V30 26 1 10 39
M  V30 27 1 10 40
M  V30 28 1 11 12
M  V30 29 1 11 41
M  V30 30 1 12 13
M  V30 31 2 12 14
M  V30 32 1 13 42
M  V30 33 1 16 17
M  V30 34 2 16 28
M  V30 35 2 17 18
M  V30 36 1 17 22
M  V30 37 1 18 19
M  V30 38 1 18 43
M  V30 39 2 19 20
M  V30 40 1 19 44
M  V30 41 1 20 21
M  V30 42 1 20 45
M  V30 43 2 21 22
M  V30 44 1 22 23
M  V30 45 1 23 24
M  V30 46 1 23 27
M  V30 47 2 24 25
M  V30 48 1 24 46
M  V30 49 1 25 26
M  V30 50 1 25 47
M  V30 51 2 26 27
M  V30 52 1 26 48
M  V30 END BOND
M  V30 END CTAB
M  END
> <s_m_entry_id>
37

> <i_f3d_flags>
0

> <r_lp_tautomer_probability>
1

> <r_epik_Ionization_Penalty>
  0.0000

> <r_epik_State_Penalty>
  0.0000

> <i_epik_Tot_Q>
0

> <r_i_docking_score>
-6.16492658134431

> <r_i_glide_gscore>
-6.16492658134431

> <r_i_glide_emodel>
-66.9205654782351

> <s_m_subgroup_title>
nsp13-core1_lib_top-500_pv

> <s_m_subgroupid>
nsp13-core1_lib_top-500_pv

> <b_m_subgroup_collapsed>
0

$$$$
Core_1_EN300-1590105_EN300-1590105
                    3D
 Schrodinger Suite 2023-1.
  0  0  0     0  0            999 V3000
M  V30 BEGIN CTAB
M  V30 COUNTS 48 52 0 0 0
M  V30 BEGIN ATOM
M  V30 1 C  -40.3460 35.5610 -0.7212 0
M  V30 2 C  -39.6183 36.8845 -0.9795 0
M  V30 3 N  -39.7445 37.1368 -2.4138 0
M  V30 4 C  -40.6856 36.1970 -3.0183 0
M  V30 5 C  -41.3685 35.4769 -1.8495 0 CFG=1
M  V30 6 N  -41.7303 34.1041 -2.1821 0
M  V30 7 C  -42.7160 33.7750 -3.0308 0
M  V30 8 C  -42.8919 32.3380 -3.2941 0
M  V30 9 C  -42.4132 31.2406 -2.5764 0
M  V30 10 C  -42.8878 30.2088 -3.3201 0
M  V30 11 C  -43.5844 30.6335 -4.3418 0
M  V30 12 C  -44.0560 29.5335 -5.0999 0
M  V30 13 C  -43.5501 28.4343 -4.4128 0
M  V30 14 N  -42.8199 28.8516 -3.2817 0
M  V30 15 O  -43.6574 31.9747 -4.4101 0
M  V30 16 O  -43.4164 34.6048 -3.6103 0
M  V30 17 C  -39.1515 38.1608 -3.0558 0
M  V30 18 C  -39.1517 38.1322 -4.5930 0
M  V30 19 S  -38.0694 39.4090 -5.3824 0
M  V30 20 C  -39.0417 40.9099 -5.2564 0
M  V30 21 C  -38.6841 41.8892 -4.3038 0
M  V30 22 C  -39.4539 43.0646 -4.1759 0
M  V30 23 C  -40.5880 43.2639 -4.9906 0
M  V30 24 C  -40.9466 42.2741 -5.9258 0
M  V30 25 C  -40.1880 41.1063 -6.0618 0
M  V30 26 N  -40.6336 40.2264 -6.9672 0
M  V30 27 S  -42.0137 40.9538 -7.5970 0
M  V30 28 N  -42.0186 42.3868 -6.7138 0
M  V30 29 O  -37.9517 39.0836 -6.8103 0
M  V30 30 O  -36.8404 39.5668 -4.5899 0
M  V30 31 O  -38.5896 39.0678 -2.4416 0
M  V30 32 H  -39.6334 34.7365 -0.7941 0
M  V30 33 H  -40.8025 35.5186 0.2692 0
M  V30 34 H  -38.5739 36.8341 -0.6683 0
M  V30 35 H  -40.0989 37.6955 -0.4311 0
M  V30 36 H  -41.4322 36.7130 -3.6206 0
M  V30 37 H  -40.1411 35.5022 -3.6595 0
M  V30 38 H  -42.2579 36.0360 -1.5549 0
M  V30 39 H  -41.1999 33.3646 -1.7504 0
M  V30 40 H  -41.8168 31.2121 -1.6775 0
M  V30 41 H  -44.6479 29.5278 -6.0037 0
M  V30 42 H  -43.6432 27.3811 -4.6311 0
M  V30 43 H  -42.3530 28.2779 -2.5844 0
M  V30 44 H  -40.1614 38.2838 -4.9648 0
M  V30 45 H  -38.8059 37.1583 -4.9383 0
M  V30 46 H  -37.8229 41.7398 -3.6682 0
M  V30 47 H  -39.1778 43.8126 -3.4469 0
M  V30 48 H  -41.1818 44.1610 -4.8890 0
M  V30 END ATOM
M  V30 BEGIN BOND
M  V30 1 1 1 2
M  V30 2 1 1 5
M  V30 3 1 1 32
M  V30 4 1 1 33
M  V30 5 1 2 3
M  V30 6 1 2 34
M  V30 7 1 2 35
M  V30 8 1 3 4
M  V30 9 1 3 17
M  V30 10 1 4 5
M  V30 11 1 4 36
M  V30 12 1 4 37
M  V30 13 1 5 6
M  V30 14 1 5 38
M  V30 15 1 6 7
M  V30 16 1 6 39
M  V30 17 1 7 8
M  V30 18 2 7 16
M  V30 19 2 8 9
M  V30 20 1 8 15
M  V30 21 1 9 10
M  V30 22 1 9 40
M  V30 23 2 10 11
M  V30 24 1 10 14
M  V30 25 1 11 12
M  V30 26 1 11 15
M  V30 27 2 12 13
M  V30 28 1 12 41
M  V30 29 1 13 14
M  V30 30 1 13 42
M  V30 31 1 14 43
M  V30 32 1 17 18
M  V30 33 2 17 31
M  V30 34 1 18 19
M  V30 35 1 18 44
M  V30 36 1 18 45
M  V30 37 1 19 20
M  V30 38 2 19 29
M  V30 39 2 19 30
M  V30 40 2 20 21
M  V30 41 1 20 25
M  V30 42 1 21 22
M  V30 43 1 21 46
M  V30 44 2 22 23
M  V30 45 1 22 47
M  V30 46 1 23 24
M  V30 47 1 23 48
M  V30 48 1 24 25
M  V30 49 2 24 28
M  V30 50 2 25 26
M  V30 51 1 26 27
M  V30 52 1 27 28
M  V30 END BOND
M  V30 END CTAB
M  END
> <s_m_entry_id>
38

> <i_f3d_flags>
0

> <r_lp_tautomer_probability>
1

> <r_epik_Ionization_Penalty>
  0.0000

> <r_epik_State_Penalty>
  0.0000

> <i_epik_Tot_Q>
0

> <r_i_docking_score>
-6.16280842082678

> <r_i_glide_gscore>
-6.16280842082678

> <r_i_glide_emodel>
-66.8023039261582

> <s_m_subgroup_title>
nsp13-core1_lib_top-500_pv

> <s_m_subgroupid>
nsp13-core1_lib_top-500_pv

> <b_m_subgroup_collapsed>
0

$$$$
Core_1_EN300-1086703_EN300-1086703
                    3D
 Schrodinger Suite 2023-1.
  0  0  0     0  0            999 V3000
M  V30 BEGIN CTAB
M  V30 COUNTS 47 50 0 0 0
M  V30 BEGIN ATOM
M  V30 1 C  -38.3926 40.0825 -2.2186 0
M  V30 2 C  -37.1960 40.1416 -3.2337 0
M  V30 3 C  -37.8118 39.5835 -4.4674 0
M  V30 4 C  -37.5167 39.2360 -5.8132 0
M  V30 5 N  -38.5754 38.6849 -6.4102 0
M  V30 6 N  -39.5514 38.6839 -5.4661 0
M  V30 7 C  -39.0918 39.2508 -4.3059 0
M  V30 8 C  -39.6441 39.4943 -2.9575 0 CFG=1
M  V30 9 C  -40.1972 38.2101 -2.3234 0
M  V30 10 N  -39.5490 37.0686 -2.6135 0
M  V30 11 C  -39.9641 35.6910 -2.3780 0 CFG=1
M  V30 12 C  -40.2184 35.3170 -0.9152 0
M  V30 13 C  -41.2817 34.2175 -0.9804 0
M  V30 14 N  -41.9370 34.3482 -2.2817 0
M  V30 15 C  -41.2450 35.3115 -3.1306 0
M  V30 16 C  -43.0443 33.6894 -2.6766 0
M  V30 17 C  -43.6651 32.6498 -1.7221 0
M  V30 18 O  -44.5964 31.8171 -2.4138 0
M  V30 19 C  -44.1187 30.8691 -3.2945 0
M  V30 20 C  -42.7596 30.4955 -3.4275 0
M  V30 21 C  -42.4181 29.5455 -4.4040 0
M  V30 22 C  -43.4313 29.0005 -5.2102 0
M  V30 23 C  -44.7489 29.4396 -5.0064 0
M  V30 24 N  -45.0940 30.3339 -4.0582 0
M  V30 25 O  -43.5587 33.8837 -3.7798 0
M  V30 26 O  -41.2134 38.2606 -1.6317 0
M  V30 27 H  -38.6160 41.0817 -1.8446 0
M  V30 28 H  -38.1171 39.4843 -1.3487 0
M  V30 29 H  -36.8471 41.1646 -3.3752 0
M  V30 30 H  -36.3526 39.5420 -2.8890 0
M  V30 31 H  -36.5916 39.3289 -6.3599 0
M  V30 32 H  -40.4674 38.2594 -5.6131 0
M  V30 33 H  -40.4377 40.2405 -3.0137 0
M  V30 34 H  -38.7254 37.1732 -3.1893 0
M  V30 35 H  -39.1520 35.0723 -2.7561 0
M  V30 36 H  -40.6182 36.1579 -0.3481 0
M  V30 37 H  -39.3114 34.9912 -0.4053 0
M  V30 38 H  -41.9867 34.3067 -0.1527 0
M  V30 39 H  -40.8122 33.2370 -0.9177 0
M  V30 40 H  -41.0127 34.8933 -4.1114 0
M  V30 41 H  -41.9012 36.1683 -3.2871 0
M  V30 42 H  -44.2116 33.1881 -0.9481 0
M  V30 43 H  -42.9123 32.0554 -1.2047 0
M  V30 44 H  -41.9765 30.9168 -2.8145 0
M  V30 45 H  -41.3897 29.2541 -4.5397 0
M  V30 46 H  -43.1986 28.2799 -5.9800 0
M  V30 47 H  -45.5555 29.0511 -5.6102 0
M  V30 END ATOM
M  V30 BEGIN BOND
M  V30 1 1 1 2
M  V30 2 1 1 8
M  V30 3 1 1 27
M  V30 4 1 1 28
M  V30 5 1 2 3
M  V30 6 1 2 29
M  V30 7 1 2 30
M  V30 8 1 3 4
M  V30 9 2 3 7
M  V30 10 2 4 5
M  V30 11 1 4 31
M  V30 12 1 5 6
M  V30 13 1 6 7
M  V30 14 1 6 32
M  V30 15 1 7 8
M  V30 16 1 8 9
M  V30 17 1 8 33
M  V30 18 1 9 10
M  V30 19 2 9 26
M  V30 20 1 10 11
M  V30 21 1 10 34
M  V30 22 1 11 12
M  V30 23 1 11 15
M  V30 24 1 11 35
M  V30 25 1 12 13
M  V30 26 1 12 36
M  V30 27 1 12 37
M  V30 28 1 13 14
M  V30 29 1 13 38
M  V30 30 1 13 39
M  V30 31 1 14 15
M  V30 32 1 14 16
M  V30 33 1 15 40
M  V30 34 1 15 41
M  V30 35 1 16 17
M  V30 36 2 16 25
M  V30 37 1 17 18
M  V30 38 1 17 42
M  V30 39 1 17 43
M  V30 40 1 18 19
M  V30 41 2 19 20
M  V30 42 1 19 24
M  V30 43 1 20 21
M  V30 44 1 20 44
M  V30 45 2 21 22
M  V30 46 1 21 45
M  V30 47 1 22 23
M  V30 48 1 22 46
M  V30 49 2 23 24
M  V30 50 1 23 47
M  V30 END BOND
M  V30 END CTAB
M  END
> <s_m_entry_id>
39

> <i_f3d_flags>
0

> <r_lp_tautomer_probability>
0.5

> <r_epik_Ionization_Penalty>
  0.0001

> <r_epik_State_Penalty>
  0.4107

> <i_epik_Tot_Q>
0

> <r_i_docking_score>
-6.15567009068402

> <r_i_glide_gscore>
-6.56637009068402

> <r_i_glide_emodel>
-54.5363988244973

> <s_m_subgroup_title>
nsp13-core1_lib_top-500_pv

> <s_m_subgroupid>
nsp13-core1_lib_top-500_pv

> <b_m_subgroup_collapsed>
0

$$$$
Core_1_EN300-00140_EN300-00140
                    3D
 Schrodinger Suite 2023-1.
  0  0  0     0  0            999 V3000
M  V30 BEGIN CTAB
M  V30 COUNTS 51 55 0 0 0
M  V30 BEGIN ATOM
M  V30 1 C  -37.8481 43.0052 -6.9161 0
M  V30 2 C  -38.8202 42.4471 -8.0038 0
M  V30 3 C  -39.4040 41.2555 -7.3291 0
M  V30 4 C  -40.3664 40.3180 -7.5713 0
M  V30 5 N  -40.3488 39.4838 -6.4654 0
M  V30 6 C  -39.3873 39.8830 -5.5427 0
M  V30 7 C  -39.1268 39.1470 -4.2813 0
M  V30 8 N  -39.9256 38.1033 -4.0104 0
M  V30 9 C  -39.7570 37.1510 -2.9165 0 CFG=1
M  V30 10 C  -40.8230 37.3188 -1.8326 0
M  V30 11 C  -41.1702 35.8971 -1.3853 0
M  V30 12 N  -40.8787 35.0509 -2.5369 0
M  V30 13 C  -39.9513 35.7250 -3.4444 0
M  V30 14 C  -41.5208 33.9164 -2.8857 0
M  V30 15 C  -42.4233 33.1775 -1.8743 0 CFG=1
M  V30 16 C  -43.9213 33.4528 -2.1176 0
M  V30 17 O  -44.3520 32.9217 -3.3678 0
M  V30 18 C  -43.9410 31.6341 -3.6156 0
M  V30 19 C  -44.5829 30.8955 -4.6304 0
M  V30 20 C  -44.1920 29.5716 -4.9009 0
M  V30 21 C  -43.1516 28.9853 -4.1582 0
M  V30 22 C  -42.4942 29.7224 -3.1548 0
M  V30 23 C  -42.8729 31.0522 -2.8855 0
M  V30 24 O  -42.1821 31.7654 -1.9265 0
M  V30 25 O  -41.3839 33.4407 -4.0086 0
M  V30 26 O  -38.2046 39.4894 -3.5432 0
M  V30 27 C  -38.8132 40.9962 -6.0893 0
M  V30 28 C  -37.7504 41.9796 -5.7422 0
M  V30 29 H  -38.2603 43.9373 -6.5268 0
M  V30 30 H  -36.8676 43.2439 -7.3294 0
M  V30 31 H  -39.5924 43.1658 -8.2806 0
M  V30 32 H  -38.2834 42.1349 -8.9004 0
M  V30 33 H  -41.0435 40.1594 -8.3967 0
M  V30 34 H  -40.9276 38.6517 -6.3679 0
M  V30 35 H  -40.6595 37.8847 -4.6721 0
M  V30 36 H  -38.7653 37.2251 -2.4651 0
M  V30 37 H  -40.4832 37.9462 -1.0080 0
M  V30 38 H  -41.7168 37.7849 -2.2510 0
M  V30 39 H  -40.5328 35.5892 -0.5560 0
M  V30 40 H  -42.2081 35.8372 -1.0567 0
M  V30 41 H  -40.3513 35.7287 -4.4595 0
M  V30 42 H  -39.0015 35.1880 -3.4773 0
M  V30 43 H  -42.1623 33.4885 -0.8634 0
M  V30 44 H  -44.5185 33.0110 -1.3185 0
M  V30 45 H  -44.1243 34.5241 -2.1028 0
M  V30 46 H  -45.3759 31.3452 -5.2107 0
M  V30 47 H  -44.6820 29.0094 -5.6828 0
M  V30 48 H  -42.8447 27.9702 -4.3644 0
M  V30 49 H  -41.6879 29.2657 -2.5991 0
M  V30 50 H  -36.7813 41.4804 -5.7185 0
M  V30 51 H  -37.9379 42.4372 -4.7706 0
M  V30 END ATOM
M  V30 BEGIN BOND
M  V30 1 1 1 2
M  V30 2 1 1 28
M  V30 3 1 1 29
M  V30 4 1 1 30
M  V30 5 1 2 3
M  V30 6 1 2 31
M  V30 7 1 2 32
M  V30 8 2 3 4
M  V30 9 1 3 27
M  V30 10 1 4 5
M  V30 11 1 4 33
M  V30 12 1 5 6
M  V30 13 1 5 34
M  V30 14 1 6 7
M  V30 15 2 6 27
M  V30 16 1 7 8
M  V30 17 2 7 26
M  V30 18 1 8 9
M  V30 19 1 8 35
M  V30 20 1 9 10
M  V30 21 1 9 13
M  V30 22 1 9 36
M  V30 23 1 10 11
M  V30 24 1 10 37
M  V30 25 1 10 38
M  V30 26 1 11 12
M  V30 27 1 11 39
M  V30 28 1 11 40
M  V30 29 1 12 13
M  V30 30 1 12 14
M  V30 31 1 13 41
M  V30 32 1 13 42
M  V30 33 1 14 15
M  V30 34 2 14 25
M  V30 35 1 15 16
M  V30 36 1 15 24
M  V30 37 1 15 43
M  V30 38 1 16 17
M  V30 39 1 16 44
M  V30 40 1 16 45
M  V30 41 1 17 18
M  V30 42 2 18 19
M  V30 43 1 18 23
M  V30 44 1 19 20
M  V30 45 1 19 46
M  V30 46 2 20 21
M  V30 47 1 20 47
M  V30 48 1 21 22
M  V30 49 1 21 48
M  V30 50 2 22 23
M  V30 51 1 22 49
M  V30 52 1 23 24
M  V30 53 1 27 28
M  V30 54 1 28 50
M  V30 55 1 28 51
M  V30 END BOND
M  V30 END CTAB
M  END
> <s_m_entry_id>
43

> <i_f3d_flags>
0

> <r_lp_tautomer_probability>
1

> <r_epik_Ionization_Penalty>
  0.0000

> <r_epik_State_Penalty>
  0.0000

> <i_epik_Tot_Q>
0

> <r_i_docking_score>
-6.14312003142832

> <r_i_glide_gscore>
-6.14312003142832

> <r_i_glide_emodel>
-60.1255272677402

> <s_m_subgroup_title>
nsp13-core1_lib_top-500_pv

> <s_m_subgroupid>
nsp13-core1_lib_top-500_pv

> <b_m_subgroup_collapsed>
0

$$$$
Core_1_EN300-14395_EN300-14395
                    3D
 Schrodinger Suite 2023-1.
  0  0  0     0  0            999 V3000
M  V30 BEGIN CTAB
M  V30 COUNTS 41 44 0 0 0
M  V30 BEGIN ATOM
M  V30 1 C  -38.8524 41.0002 -7.0799 0
M  V30 2 N  -38.8630 39.9793 -6.0538 0
M  V30 3 C  -38.9953 40.1344 -4.6883 0
M  V30 4 C  -38.9437 38.8752 -4.1672 0
M  V30 5 C  -38.7515 38.0037 -5.2714 0
M  V30 6 N  -38.7091 38.6828 -6.4103 0
M  V30 7 C  -38.9318 38.5386 -2.7039 0
M  V30 8 N  -39.5379 37.4092 -2.2682 0
M  V30 9 C  -39.5019 37.0214 -0.8585 0
M  V30 10 C  -40.2731 35.7090 -0.7477 0
M  V30 11 C  -41.2013 35.7159 -1.9570 0 CFG=1
M  V30 12 C  -40.4251 36.5141 -3.0168 0
M  V30 13 N  -41.5350 34.3563 -2.3744 0
M  V30 14 C  -42.6042 34.0200 -3.1109 0
M  V30 15 C  -42.8082 32.5788 -3.3389 0
M  V30 16 C  -42.3517 31.4857 -2.6001 0
M  V30 17 C  -42.8561 30.4444 -3.3114 0
M  V30 18 C  -43.5546 30.8648 -4.3339 0
M  V30 19 C  -44.0511 29.7642 -5.0715 0
M  V30 20 C  -43.5511 28.6666 -4.3785 0
M  V30 21 N  -42.8127 29.0840 -3.2510 0
M  V30 22 O  -43.6028 32.2055 -4.4283 0
M  V30 23 O  -43.3678 34.8437 -3.6103 0
M  V30 24 O  -38.3707 39.3168 -1.9323 0
M  V30 25 H  -38.8169 41.9884 -6.6205 0
M  V30 26 H  -37.9782 40.8777 -7.7186 0
M  V30 27 H  -39.7540 40.9214 -7.6868 0
M  V30 28 H  -39.0966 41.1009 -4.2146 0
M  V30 29 H  -38.6265 36.9331 -5.2927 0
M  V30 30 H  -39.9911 37.7946 -0.2629 0
M  V30 31 H  -38.4774 36.9138 -0.4956 0
M  V30 32 H  -40.8115 35.6153 0.1948 0
M  V30 33 H  -39.5679 34.8792 -0.8104 0
M  V30 34 H  -42.1084 36.2643 -1.6943 0
M  V30 35 H  -39.8203 35.8502 -3.6345 0
M  V30 36 H  -41.1092 37.0661 -3.6621 0
M  V30 37 H  -40.9513 33.6106 -2.0255 0
M  V30 38 H  -41.7404 31.4679 -1.7096 0
M  V30 39 H  -44.6529 29.7567 -5.9701 0
M  V30 40 H  -43.6615 27.6094 -4.5806 0
M  V30 41 H  -42.3516 28.5069 -2.5562 0
M  V30 END ATOM
M  V30 BEGIN BOND
M  V30 1 1 1 2
M  V30 2 1 1 25
M  V30 3 1 1 26
M  V30 4 1 1 27
M  V30 5 1 2 3
M  V30 6 1 2 6
M  V30 7 2 3 4
M  V30 8 1 3 28
M  V30 9 1 4 5
M  V30 10 1 4 7
M  V30 11 2 5 6
M  V30 12 1 5 29
M  V30 13 1 7 8
M  V30 14 2 7 24
M  V30 15 1 8 9
M  V30 16 1 8 12
M  V30 17 1 9 10
M  V30 18 1 9 30
M  V30 19 1 9 31
M  V30 20 1 10 11
M  V30 21 1 10 32
M  V30 22 1 10 33
M  V30 23 1 11 12
M  V30 24 1 11 13
M  V30 25 1 11 34
M  V30 26 1 12 35
M  V30 27 1 12 36
M  V30 28 1 13 14
M  V30 29 1 13 37
M  V30 30 1 14 15
M  V30 31 2 14 23
M  V30 32 2 15 16
M  V30 33 1 15 22
M  V30 34 1 16 17
M  V30 35 1 16 38
M  V30 36 2 17 18
M  V30 37 1 17 21
M  V30 38 1 18 19
M  V30 39 1 18 22
M  V30 40 2 19 20
M  V30 41 1 19 39
M  V30 42 1 20 21
M  V30 43 1 20 40
M  V30 44 1 21 41
M  V30 END BOND
M  V30 END CTAB
M  END
> <s_m_entry_id>
45

> <i_f3d_flags>
0

> <r_lp_tautomer_probability>
1

> <r_epik_Ionization_Penalty>
  0.0000

> <r_epik_State_Penalty>
  0.0000

> <i_epik_Tot_Q>
0

> <r_i_docking_score>
-6.13960247834668

> <r_i_glide_gscore>
-6.13960247834668

> <r_i_glide_emodel>
-52.0033042407406

> <s_m_subgroup_title>
nsp13-core1_lib_top-500_pv

> <s_m_subgroupid>
nsp13-core1_lib_top-500_pv

> <b_m_subgroup_collapsed>
0

$$$$
Core_1_EN300-152913_EN300-152913
                    3D
 Schrodinger Suite 2023-1.
  0  0  0     0  0            999 V3000
M  V30 BEGIN CTAB
M  V30 COUNTS 47 49 0 0 0
M  V30 BEGIN ATOM
M  V30 1 C  -42.7244 28.6855 -4.9725 0
M  V30 2 N  -43.9698 29.2806 -4.5167 0
M  V30 3 C  -45.0387 29.5234 -5.4711 0
M  V30 4 C  -43.9405 30.0736 -3.3403 0
M  V30 5 N  -42.7927 30.2810 -2.6397 0
M  V30 6 C  -43.2161 31.0945 -1.6771 0
M  V30 7 C  -42.3821 31.7932 -0.6552 0
M  V30 8 C  -42.2865 33.3196 -0.8532 0
M  V30 9 C  -41.5516 33.7705 -2.1279 0
M  V30 10 N  -40.9127 34.9571 -2.1173 0
M  V30 11 C  -41.0086 35.9796 -1.0788 0
M  V30 12 C  -40.5309 37.2754 -1.7323 0
M  V30 13 C  -39.6024 36.8173 -2.8538 0 CFG=1
M  V30 14 C  -40.1117 35.4274 -3.2416 0
M  V30 15 N  -39.6561 37.6967 -4.0102 0
M  V30 16 C  -38.8255 38.7172 -4.2590 0
M  V30 17 C  -38.9924 39.3790 -5.5678 0
M  V30 18 C  -38.2000 40.3789 -6.0487 0
M  V30 19 C  -38.7882 40.6410 -7.3187 0
M  V30 20 N  -39.8408 39.8836 -7.5961 0
M  V30 21 N  -39.9497 39.0843 -6.5116 0
M  V30 22 O  -38.3517 41.5126 -8.2670 0
M  V30 23 O  -37.9557 39.0846 -3.4710 0
M  V30 24 O  -41.5524 33.0565 -3.1297 0
M  V30 25 O  -44.5394 31.3751 -1.7406 0
M  V30 26 N  -45.0201 30.6840 -2.8594 0
M  V30 27 H  -42.3524 27.9889 -4.2207 0
M  V30 28 H  -41.9652 29.4524 -5.1366 0
M  V30 29 H  -42.8613 28.1371 -5.9053 0
M  V30 30 H  -45.9751 29.0818 -5.1365 0
M  V30 31 H  -45.1930 30.5933 -5.6128 0
M  V30 32 H  -44.7827 29.0800 -6.4304 0
M  V30 33 H  -42.8144 31.5951 0.3233 0
M  V30 34 H  -41.3869 31.3475 -0.6456 0
M  V30 35 H  -43.2830 33.7613 -0.8505 0
M  V30 36 H  -41.7694 33.7197 0.0190 0
M  V30 37 H  -42.0218 36.0888 -0.6894 0
M  V30 38 H  -40.3521 35.7060 -0.2515 0
M  V30 39 H  -41.3919 37.8041 -2.1444 0
M  V30 40 H  -40.0389 37.9462 -1.0272 0
M  V30 41 H  -38.5886 36.7250 -2.4608 0
M  V30 42 H  -39.2834 34.7471 -3.4504 0
M  V30 43 H  -40.7411 35.4628 -4.1330 0
M  V30 44 H  -40.3665 37.4778 -4.6987 0
M  V30 45 H  -37.3409 40.8330 -5.5776 0
M  V30 46 H  -37.4184 41.6469 -8.1744 0
M  V30 47 H  -40.6907 38.3920 -6.4117 0
M  V30 END ATOM
M  V30 BEGIN BOND
M  V30 1 1 1 2
M  V30 2 1 1 27
M  V30 3 1 1 28
M  V30 4 1 1 29
M  V30 5 1 2 3
M  V30 6 1 2 4
M  V30 7 1 3 30
M  V30 8 1 3 31
M  V30 9 1 3 32
M  V30 10 1 4 5
M  V30 11 2 4 26
M  V30 12 2 5 6
M  V30 13 1 6 7
M  V30 14 1 6 25
M  V30 15 1 7 8
M  V30 16 1 7 33
M  V30 17 1 7 34
M  V30 18 1 8 9
M  V30 19 1 8 35
M  V30 20 1 8 36
M  V30 21 1 9 10
M  V30 22 2 9 24
M  V30 23 1 10 11
M  V30 24 1 10 14
M  V30 25 1 11 12
M  V30 26 1 11 37
M  V30 27 1 11 38
M  V30 28 1 12 13
M  V30 29 1 12 39
M  V30 30 1 12 40
M  V30 31 1 13 14
M  V30 32 1 13 15
M  V30 33 1 13 41
M  V30 34 1 14 42
M  V30 35 1 14 43
M  V30 36 1 15 16
M  V30 37 1 15 44
M  V30 38 2 16 23
M  V30 39 1 16 17
M  V30 40 2 17 18
M  V30 41 1 17 21
M  V30 42 1 18 45
M  V30 43 1 18 19
M  V30 44 2 19 20
M  V30 45 1 19 22
M  V30 46 1 20 21
M  V30 47 1 21 47
M  V30 48 1 22 46
M  V30 49 1 25 26
M  V30 END BOND
M  V30 END CTAB
M  END
> <s_m_entry_id>
49

> <i_f3d_flags>
0

> <r_lp_tautomer_probability>
0.966084542645576

> <r_epik_Ionization_Penalty>
  0.2454

> <r_epik_State_Penalty>
  0.3533

> <i_epik_Tot_Q>
0

> <r_i_docking_score>
-6.13115301177156

> <r_i_glide_gscore>
-6.48445301177156

> <r_i_glide_emodel>
-64.7712043857636

> <s_m_subgroup_title>
nsp13-core1_lib_top-500_pv

> <s_m_subgroupid>
nsp13-core1_lib_top-500_pv

> <b_m_subgroup_collapsed>
0

$$$$
Core_1_EN300-1703690_EN300-1703690
                    3D
 Schrodinger Suite 2023-1.
  0  0  0     0  0            999 V3000
M  V30 BEGIN CTAB
M  V30 COUNTS 44 47 0 0 0
M  V30 BEGIN ATOM
M  V30 1 C  -39.9821 34.8856 -3.5696 0
M  V30 2 C  -39.6877 36.3690 -3.6467 0
M  V30 3 N  -40.7611 37.0401 -2.9166 0
M  V30 4 C  -41.5374 36.0647 -2.1441 0
M  V30 5 C  -40.7738 34.7344 -2.2771 0 CFG=1
M  V30 6 N  -41.5751 33.5041 -2.2518 0
M  V30 7 C  -42.5468 33.1174 -3.0967 0
M  V30 8 C  -42.8918 31.6783 -3.0950 0
M  V30 9 C  -43.4877 30.8895 -4.1267 0
M  V30 10 C  -43.5628 29.5966 -3.6910 0
M  V30 11 N  -43.0534 29.5789 -2.4106 0
M  V30 12 C  -42.6622 30.8438 -2.0290 0
M  V30 13 O  -43.0633 33.8794 -3.9148 0
M  V30 14 C  -41.0792 38.3536 -3.0044 0
M  V30 15 C  -40.3404 39.1883 -4.0201 0
M  V30 16 C  -38.9263 39.2695 -4.0417 0
M  V30 17 C  -38.2605 39.9356 -5.0903 0
M  V30 18 C  -39.0084 40.5668 -6.1050 0
M  V30 19 C  -40.4105 40.5516 -6.0444 0
M  V30 20 C  -41.0790 39.8840 -5.0017 0
M  V30 21 S  -41.3668 41.3520 -7.3206 0
M  V30 22 N  -40.2443 42.3020 -8.0102 0 CHG=-1
M  V30 23 C  -38.9028 42.1071 -8.0057 0
M  V30 24 N  -38.3516 41.2075 -7.1769 0
M  V30 25 O  -38.1237 42.7641 -8.6916 0
M  V30 26 O  -41.8379 40.2837 -8.2225 0
M  V30 27 O  -42.3983 42.1359 -6.6236 0
M  V30 28 O  -42.0013 38.8562 -2.3608 0
M  V30 29 H  -39.0742 34.2837 -3.6101 0
M  V30 30 H  -40.6002 34.6201 -4.4206 0
M  V30 31 H  -38.7507 36.5782 -3.1405 0
M  V30 32 H  -39.6022 36.6850 -4.6889 0
M  V30 33 H  -42.5423 36.0085 -2.5664 0
M  V30 34 H  -41.6327 36.3625 -1.1000 0
M  V30 35 H  -40.0625 34.6826 -1.4527 0
M  V30 36 H  -41.2452 32.7910 -1.6181 0
M  V30 37 H  -43.7972 31.2364 -5.1019 0
M  V30 38 H  -43.9214 28.6943 -4.1680 0
M  V30 39 H  -42.9458 28.7490 -1.8318 0
M  V30 40 H  -42.2438 31.0150 -1.0469 0
M  V30 41 H  -38.3403 38.7870 -3.2732 0
M  V30 42 H  -37.1796 39.9550 -5.1141 0
M  V30 43 H  -42.1591 39.8494 -5.0003 0
M  V30 44 H  -37.3468 41.0863 -7.2481 0
M  V30 END ATOM
M  V30 BEGIN BOND
M  V30 1 1 1 2
M  V30 2 1 1 5
M  V30 3 1 1 29
M  V30 4 1 1 30
M  V30 5 1 2 3
M  V30 6 1 2 31
M  V30 7 1 2 32
M  V30 8 1 3 4
M  V30 9 1 3 14
M  V30 10 1 4 5
M  V30 11 1 4 33
M  V30 12 1 4 34
M  V30 13 1 5 6
M  V30 14 1 5 35
M  V30 15 1 6 7
M  V30 16 1 6 36
M  V30 17 1 7 8
M  V30 18 2 7 13
M  V30 19 1 8 9
M  V30 20 2 8 12
M  V30 21 2 9 10
M  V30 22 1 9 37
M  V30 23 1 10 11
M  V30 24 1 10 38
M  V30 25 1 11 12
M  V30 26 1 11 39
M  V30 27 1 12 40
M  V30 28 1 14 15
M  V30 29 2 14 28
M  V30 30 2 15 16
M  V30 31 1 15 20
M  V30 32 1 16 17
M  V30 33 1 16 41
M  V30 34 2 17 18
M  V30 35 1 17 42
M  V30 36 1 18 19
M  V30 37 1 18 24
M  V30 38 2 19 20
M  V30 39 1 19 21
M  V30 40 1 20 43
M  V30 41 1 21 22
M  V30 42 2 21 26
M  V30 43 2 21 27
M  V30 44 1 22 23
M  V30 45 1 23 24
M  V30 46 2 23 25
M  V30 47 1 24 44
M  V30 END BOND
M  V30 END CTAB
M  END
> <s_m_entry_id>
51

> <i_f3d_flags>
0

> <r_epik_Ionization_Penalty>
  0.0058

> <r_epik_State_Penalty>
  0.0058

> <i_epik_Tot_Q>
-1

> <r_i_docking_score>
-6.12556405537342

> <r_i_glide_gscore>
-6.13136405537342

> <r_i_glide_emodel>
-59.4062650207511

> <s_m_subgroup_title>
nsp13-core1_lib_top-500_pv

> <s_m_subgroupid>
nsp13-core1_lib_top-500_pv

> <b_m_subgroup_collapsed>
0

$$$$
Core_1_EN300-7549839_EN300-7549839
                    3D
 Schrodinger Suite 2023-1.
  0  0  0     0  0            999 V3000
M  V30 BEGIN CTAB
M  V30 COUNTS 45 49 0 0 0
M  V30 BEGIN ATOM
M  V30 1 C  -41.0081 37.1110 -0.5662 0
M  V30 2 C  -40.1436 38.3416 -0.8148 0
M  V30 3 N  -39.7767 38.3246 -2.2328 0
M  V30 4 C  -40.5798 37.3225 -2.9341 0
M  V30 5 C  -41.6000 36.7754 -1.9278 0 CFG=1
M  V30 6 N  -41.7927 35.3382 -2.0645 0
M  V30 7 C  -42.7275 34.7334 -2.8102 0
M  V30 8 C  -42.7400 33.2365 -2.7122 0
M  V30 9 C  -42.3701 32.5852 -1.5078 0
M  V30 10 C  -42.3680 31.1811 -1.4225 0
M  V30 11 C  -42.7500 30.4347 -2.5468 0
M  V30 12 C  -43.1568 31.0552 -3.7644 0
M  V30 13 C  -43.1557 32.4651 -3.8248 0
M  V30 14 N  -43.5023 30.1160 -4.7251 0
M  V30 15 C  -43.2660 28.9739 -4.0822 0
M  V30 16 N  -42.8473 29.0838 -2.8103 0
M  V30 17 O  -43.4922 35.3236 -3.5729 0
M  V30 18 C  -38.8325 39.1736 -2.7142 0
M  V30 19 C  -38.4271 39.1872 -4.1760 0
M  V30 20 C  -38.8623 38.3349 -5.2387 0
M  V30 21 N  -38.3441 38.6832 -6.4101 0
M  V30 22 N  -37.5513 39.7317 -6.1254 0
M  V30 23 C  -37.5548 40.0544 -4.7902 0
M  V30 24 N  -36.7788 41.0938 -4.2315 0
M  V30 25 C  -35.9446 41.1173 -3.1878 0
M  V30 26 N  -35.3299 42.2853 -3.0782 0
M  V30 27 N  -35.8392 43.0105 -4.1400 0
M  V30 28 N  -36.6905 42.3069 -4.8322 0
M  V30 29 O  -38.2915 39.9764 -1.9558 0
M  V30 30 H  -40.3686 36.3005 -0.2142 0
M  V30 31 H  -41.7710 37.2808 0.1935 0
M  V30 32 H  -39.2688 38.3395 -0.1613 0
M  V30 33 H  -40.7102 39.2516 -0.6102 0
M  V30 34 H  -41.1116 37.7591 -3.7787 0
M  V30 35 H  -39.9235 36.5284 -3.2940 0
M  V30 36 H  -42.5455 37.3089 -2.0436 0
M  V30 37 H  -41.1841 34.7447 -1.5219 0
M  V30 38 H  -42.0899 33.1521 -0.6300 0
M  V30 39 H  -42.0880 30.6899 -0.5002 0
M  V30 40 H  -43.4637 32.9480 -4.7397 0
M  V30 41 H  -43.4165 28.0142 -4.5568 0
M  V30 42 H  -42.6273 28.3150 -2.1749 0
M  V30 43 H  -39.5337 37.4917 -5.2488 0
M  V30 44 H  -36.9961 40.1990 -6.8410 0
M  V30 45 H  -35.7593 40.2763 -2.5344 0
M  V30 END ATOM
M  V30 BEGIN BOND
M  V30 1 1 1 2
M  V30 2 1 1 5
M  V30 3 1 1 30
M  V30 4 1 1 31
M  V30 5 1 2 3
M  V30 6 1 2 32
M  V30 7 1 2 33
M  V30 8 1 3 4
M  V30 9 1 3 18
M  V30 10 1 4 5
M  V30 11 1 4 34
M  V30 12 1 4 35
M  V30 13 1 5 6
M  V30 14 1 5 36
M  V30 15 1 6 7
M  V30 16 1 6 37
M  V30 17 1 7 8
M  V30 18 2 7 17
M  V30 19 2 8 9
M  V30 20 1 8 13
M  V30 21 1 9 10
M  V30 22 1 9 38
M  V30 23 2 10 11
M  V30 24 1 10 39
M  V30 25 1 11 12
M  V30 26 1 11 16
M  V30 27 2 12 13
M  V30 28 1 12 14
M  V30 29 1 13 40
M  V30 30 2 14 15
M  V30 31 1 15 16
M  V30 32 1 15 41
M  V30 33 1 16 42
M  V30 34 1 18 19
M  V30 35 2 18 29
M  V30 36 1 19 20
M  V30 37 2 19 23
M  V30 38 2 20 21
M  V30 39 1 20 43
M  V30 40 1 21 22
M  V30 41 1 22 23
M  V30 42 1 22 44
M  V30 43 1 23 24
M  V30 44 1 24 25
M  V30 45 1 24 28
M  V30 46 2 25 26
M  V30 47 1 25 45
M  V30 48 1 26 27
M  V30 49 2 27 28
M  V30 END BOND
M  V30 END CTAB
M  END
> <s_m_entry_id>
53

> <i_f3d_flags>
0

> <r_lp_tautomer_probability>
1

> <r_epik_Ionization_Penalty>
  0.0162

> <r_epik_State_Penalty>
  0.3574

> <i_epik_Tot_Q>
0

> <r_i_docking_score>
-6.10690633275163

> <r_i_glide_gscore>
-6.46430633275163

> <r_i_glide_emodel>
-59.080875441392

> <s_m_subgroup_title>
nsp13-core1_lib_top-500_pv

> <s_m_subgroupid>
nsp13-core1_lib_top-500_pv

> <b_m_subgroup_collapsed>
0

$$$$
Core_1_EN300-7640928_EN300-7640928
                    3D
 Schrodinger Suite 2023-1.
  0  0  0     0  0            999 V3000
M  V30 BEGIN CTAB
M  V30 COUNTS 38 40 0 0 0
M  V30 BEGIN ATOM
M  V30 1 C  -40.0432 34.8935 -3.2911 0
M  V30 2 C  -39.9060 36.4040 -3.3365 0
M  V30 3 N  -40.9819 36.9651 -2.5148 0
M  V30 4 C  -41.6394 35.8994 -1.7529 0
M  V30 5 C  -40.8528 34.6085 -2.0292 0 CFG=1
M  V30 6 N  -41.6587 33.3929 -2.1588 0
M  V30 7 C  -42.6384 33.1478 -3.0520 0
M  V30 8 C  -42.9412 31.6982 -3.2599 0
M  V30 9 C  -43.9527 31.2662 -4.2840 0
M  V30 10 C  -43.9647 29.8241 -4.5967 0
M  V30 11 C  -43.2059 28.9983 -3.8591 0
M  V30 12 N  -42.4149 29.4717 -2.8104 0
M  V30 13 N  -42.2867 30.8127 -2.5688 0
M  V30 14 O  -44.7508 32.0384 -4.8101 0
M  V30 15 O  -43.1744 34.0389 -3.7111 0
M  V30 16 C  -41.4007 38.2546 -2.4182 0
M  V30 17 C  -40.7498 39.4367 -3.1752 0
M  V30 18 N  -39.4638 39.2020 -3.8400 0 CFG=1
M  V30 19 N  -39.5290 39.0848 -5.1929 0
M  V30 20 C  -38.3702 39.5175 -5.6576 0
M  V30 21 N  -37.6051 40.0452 -4.4876 0
M  V30 22 N  -38.3298 39.8709 -3.4799 0
M  V30 23 O  -37.9519 39.4835 -6.8103 0
M  V30 24 O  -42.3511 38.5449 -1.6903 0
M  V30 25 H  -40.5813 34.5821 -4.1866 0
M  V30 26 H  -39.0752 34.3950 -3.3114 0
M  V30 27 H  -39.9568 36.7107 -4.3801 0
M  V30 28 H  -38.9418 36.7072 -2.9269 0
M  V30 29 H  -41.6374 36.1248 -0.6854 0
M  V30 30 H  -42.6829 35.8343 -2.0609 0
M  V30 31 H  -40.1591 34.4650 -1.2002 0
M  V30 32 H  -41.3264 32.5862 -1.6454 0
M  V30 33 H  -44.5794 29.4619 -5.4094 0
M  V30 34 H  -43.1513 27.9295 -4.0100 0
M  V30 35 H  -41.9529 28.8349 -2.1608 0
M  V30 36 H  -40.6221 40.2507 -2.4597 0
M  V30 37 H  -41.4847 39.7991 -3.8985 0
M  V30 38 H  -40.2755 38.5559 -5.6272 0
M  V30 END ATOM
M  V30 BEGIN BOND
M  V30 1 1 1 2
M  V30 2 1 1 5
M  V30 3 1 1 25
M  V30 4 1 1 26
M  V30 5 1 2 3
M  V30 6 1 2 27
M  V30 7 1 2 28
M  V30 8 1 3 4
M  V30 9 1 3 16
M  V30 10 1 4 5
M  V30 11 1 4 29
M  V30 12 1 4 30
M  V30 13 1 5 6
M  V30 14 1 5 31
M  V30 15 1 6 7
M  V30 16 1 6 32
M  V30 17 1 7 8
M  V30 18 2 7 15
M  V30 19 1 8 9
M  V30 20 2 8 13
M  V30 21 1 9 10
M  V30 22 2 9 14
M  V30 23 2 10 11
M  V30 24 1 10 33
M  V30 25 1 11 12
M  V30 26 1 11 34
M  V30 27 1 12 13
M  V30 28 1 12 35
M  V30 29 1 16 17
M  V30 30 2 16 24
M  V30 31 1 17 18
M  V30 32 1 17 36
M  V30 33 1 17 37
M  V30 34 1 18 19
M  V30 35 1 18 22
M  V30 36 1 19 20
M  V30 37 1 19 38
M  V30 38 1 20 21
M  V30 39 2 20 23
M  V30 40 2 21 22
M  V30 END BOND
M  V30 END CTAB
M  END
> <s_m_entry_id>
54

> <i_f3d_flags>
0

> <r_lp_tautomer_probability>
1

> <r_epik_Ionization_Penalty>
 28.0296

> <r_epik_State_Penalty>
  0.0000

> <i_epik_Tot_Q>
0

> <r_i_docking_score>
-6.09354221736936

> <r_i_glide_gscore>
-6.09354221736936

> <r_i_glide_emodel>
-50.5840616247562

> <s_m_subgroup_title>
nsp13-core1_lib_top-500_pv

> <s_m_subgroupid>
nsp13-core1_lib_top-500_pv

> <b_m_subgroup_collapsed>
0

$$$$
Core_1_EN300-12790_EN300-12790
                    3D
 Schrodinger Suite 2023-1.
  0  0  0     0  0            999 V3000
M  V30 BEGIN CTAB
M  V30 COUNTS 41 44 0 0 0
M  V30 BEGIN ATOM
M  V30 1 C  -42.3386 37.9057 -2.0597 0
M  V30 2 C  -43.3907 36.9627 -1.4768 0
M  V30 3 N  -43.1055 35.6371 -2.0236 0
M  V30 4 C  -41.8521 35.6517 -2.7817 0
M  V30 5 C  -41.1831 36.9944 -2.4651 0 CFG=1
M  V30 6 N  -40.4507 37.5315 -3.6086 0
M  V30 7 C  -39.3392 38.2781 -3.5193 0
M  V30 8 C  -38.8113 38.7836 -4.8207 0
M  V30 9 C  -39.5690 39.1342 -5.9683 0
M  V30 10 N  -38.7938 39.5820 -6.9405 0
M  V30 11 N  -37.5514 39.5435 -6.4102 0
M  V30 12 C  -37.5156 39.0882 -5.1107 0
M  V30 13 O  -38.7517 38.5168 -2.4652 0
M  V30 14 C  -43.9533 34.5963 -1.8581 0
M  V30 15 C  -43.5366 33.2490 -2.3795 0
M  V30 16 C  -42.4203 32.5857 -1.8272 0
M  V30 17 N  -42.0483 31.3581 -2.2439 0
M  V30 18 C  -42.7966 30.7668 -3.2028 0
M  V30 19 C  -42.4522 29.4832 -3.6671 0
M  V30 20 C  -43.2070 28.8469 -4.6689 0
M  V30 21 C  -44.3327 29.4887 -5.2103 0
M  V30 22 C  -44.6909 30.7725 -4.7589 0
M  V30 23 C  -43.9376 31.4264 -3.7575 0
M  V30 24 N  -44.2970 32.6633 -3.3363 0
M  V30 25 O  -45.0424 34.7096 -1.2949 0
M  V30 26 H  -42.0353 38.6832 -1.3573 0
M  V30 27 H  -42.7540 38.3990 -2.9401 0
M  V30 28 H  -43.3082 36.9207 -0.3898 0
M  V30 29 H  -44.3987 37.3014 -1.7218 0
M  V30 30 H  -42.0900 35.5713 -3.8426 0
M  V30 31 H  -41.1840 34.8332 -2.5229 0
M  V30 32 H  -40.5246 36.8519 -1.6068 0
M  V30 33 H  -40.8444 37.3703 -4.5334 0
M  V30 34 H  -40.6369 39.0845 -6.1231 0
M  V30 35 H  -36.7493 39.8822 -6.9392 0
M  V30 36 H  -36.6074 39.0240 -4.5279 0
M  V30 37 H  -41.8256 33.0322 -1.0446 0
M  V30 38 H  -41.5878 28.9831 -3.2515 0
M  V30 39 H  -42.9139 27.8706 -5.0257 0
M  V30 40 H  -44.9039 29.0095 -5.9929 0
M  V30 41 H  -45.5398 31.2683 -5.2099 0
M  V30 END ATOM
M  V30 BEGIN BOND
M  V30 1 1 1 2
M  V30 2 1 1 5
M  V30 3 1 1 26
M  V30 4 1 1 27
M  V30 5 1 2 3
M  V30 6 1 2 28
M  V30 7 1 2 29
M  V30 8 1 3 4
M  V30 9 1 3 14
M  V30 10 1 4 5
M  V30 11 1 4 30
M  V30 12 1 4 31
M  V30 13 1 5 6
M  V30 14 1 5 32
M  V30 15 1 6 7
M  V30 16 1 6 33
M  V30 17 1 7 8
M  V30 18 2 7 13
M  V30 19 1 8 9
M  V30 20 2 8 12
M  V30 21 2 9 10
M  V30 22 1 9 34
M  V30 23 1 10 11
M  V30 24 1 11 12
M  V30 25 1 11 35
M  V30 26 1 12 36
M  V30 27 1 14 15
M  V30 28 2 14 25
M  V30 29 2 15 16
M  V30 30 1 15 24
M  V30 31 1 16 17
M  V30 32 1 16 37
M  V30 33 2 17 18
M  V30 34 1 18 19
M  V30 35 1 18 23
M  V30 36 2 19 20
M  V30 37 1 19 38
M  V30 38 1 20 21
M  V30 39 1 20 39
M  V30 40 2 21 22
M  V30 41 1 21 40
M  V30 42 1 22 23
M  V30 43 1 22 41
M  V30 44 2 23 24
M  V30 END BOND
M  V30 END CTAB
M  END
> <s_m_entry_id>
56

> <i_f3d_flags>
0

> <r_lp_tautomer_probability>
1

> <r_epik_Ionization_Penalty>
  0.0000

> <r_epik_State_Penalty>
  0.0000

> <i_epik_Tot_Q>
0

> <r_i_docking_score>
-6.09016596592578

> <r_i_glide_gscore>
-6.09016596592578

> <r_i_glide_emodel>
-58.087702394804

> <s_m_subgroup_title>
nsp13-core1_lib_top-500_pv

> <s_m_subgroupid>
nsp13-core1_lib_top-500_pv

> <b_m_subgroup_collapsed>
0

$$$$
Core_1_EN300-218041_EN300-218041
                    3D
 Schrodinger Suite 2023-1.
  0  0  0     0  0            999 V3000
M  V30 BEGIN CTAB
M  V30 COUNTS 49 53 0 0 0
M  V30 BEGIN ATOM
M  V30 1 C  -40.5295 35.7203 -0.7021 0
M  V30 2 C  -39.7704 37.0147 -1.0023 0
M  V30 3 N  -39.8988 37.2280 -2.4394 0
M  V30 4 C  -40.8888 36.3197 -3.0084 0
M  V30 5 C  -41.5633 35.6198 -1.8213 0 CFG=1
M  V30 6 N  -41.9128 34.2358 -2.1242 0
M  V30 7 C  -42.8645 33.8744 -3.0007 0
M  V30 8 C  -42.9950 32.4326 -3.2701 0
M  V30 9 C  -42.4862 31.3405 -2.5640 0
M  V30 10 C  -42.9306 30.3028 -3.3183 0
M  V30 11 C  -43.6370 30.7186 -4.3371 0
M  V30 12 C  -44.0830 29.6162 -5.1055 0
M  V30 13 C  -43.5513 28.5236 -4.4298 0
M  V30 14 N  -42.8343 28.9476 -3.2907 0
M  V30 15 O  -43.7458 32.0595 -4.3928 0
M  V30 16 O  -43.5612 34.6848 -3.6089 0
M  V30 17 C  -39.1944 38.1576 -3.1220 0
M  V30 18 C  -39.3022 38.1810 -4.6599 0
M  V30 19 C  -38.0273 38.6836 -5.3800 0
M  V30 20 N  -38.0447 40.1272 -5.6630 0
M  V30 21 C  -37.3433 40.9802 -4.7650 0
M  V30 22 N  -37.2071 42.2688 -4.9327 0
M  V30 23 C  -37.7845 42.8270 -6.0861 0
M  V30 24 C  -37.7167 44.1965 -6.4686 0
M  V30 25 C  -38.3640 44.4188 -7.6629 0
M  V30 26 S  -39.0572 42.9495 -8.3299 0
M  V30 27 C  -38.4688 42.0485 -6.9670 0
M  V30 28 C  -38.6460 40.6042 -6.7894 0
M  V30 29 O  -39.2531 39.9140 -7.6097 0
M  V30 30 O  -38.4511 38.9556 -2.5524 0
M  V30 31 H  -39.8326 34.8820 -0.7579 0
M  V30 32 H  -40.9759 35.7150 0.2928 0
M  V30 33 H  -38.7251 36.9472 -0.6907 0
M  V30 34 H  -40.2232 37.8579 -0.4775 0
M  V30 35 H  -41.6240 36.8507 -3.6097 0
M  V30 36 H  -40.3802 35.5937 -3.6477 0
M  V30 37 H  -42.4551 36.1772 -1.5289 0
M  V30 38 H  -41.3848 33.5102 -1.6629 0
M  V30 39 H  -41.8901 31.3228 -1.6630 0
M  V30 40 H  -44.6730 29.6075 -6.0102 0
M  V30 41 H  -43.6211 27.4707 -4.6555 0
M  V30 42 H  -42.3551 28.3738 -2.6033 0
M  V30 43 H  -40.1749 38.7672 -4.9467 0
M  V30 44 H  -39.4918 37.1704 -5.0177 0
M  V30 45 H  -37.9162 38.1355 -6.3163 0
M  V30 46 H  -37.1346 38.4180 -4.8104 0
M  V30 47 H  -36.9047 40.4718 -3.9081 0
M  V30 48 H  -37.2100 44.9466 -5.8768 0
M  V30 49 H  -38.4728 45.3544 -8.1919 0
M  V30 END ATOM
M  V30 BEGIN BOND
M  V30 1 1 1 2
M  V30 2 1 1 5
M  V30 3 1 1 31
M  V30 4 1 1 32
M  V30 5 1 2 3
M  V30 6 1 2 33
M  V30 7 1 2 34
M  V30 8 1 3 4
M  V30 9 1 3 17
M  V30 10 1 4 5
M  V30 11 1 4 35
M  V30 12 1 4 36
M  V30 13 1 5 6
M  V30 14 1 5 37
M  V30 15 1 6 7
M  V30 16 1 6 38
M  V30 17 1 7 8
M  V30 18 2 7 16
M  V30 19 2 8 9
M  V30 20 1 8 15
M  V30 21 1 9 10
M  V30 22 1 9 39
M  V30 23 2 10 11
M  V30 24 1 10 14
M  V30 25 1 11 12
M  V30 26 1 11 15
M  V30 27 2 12 13
M  V30 28 1 12 40
M  V30 29 1 13 14
M  V30 30 1 13 41
M  V30 31 1 14 42
M  V30 32 1 17 18
M  V30 33 2 17 30
M  V30 34 1 18 19
M  V30 35 1 18 43
M  V30 36 1 18 44
M  V30 37 1 19 20
M  V30 38 1 19 45
M  V30 39 1 19 46
M  V30 40 1 20 21
M  V30 41 1 20 28
M  V30 42 2 21 22
M  V30 43 1 21 47
M  V30 44 1 22 23
M  V30 45 1 23 24
M  V30 46 2 23 27
M  V30 47 2 24 25
M  V30 48 1 24 48
M  V30 49 1 25 26
M  V30 50 1 25 49
M  V30 51 1 26 27
M  V30 52 1 27 28
M  V30 53 2 28 29
M  V30 END BOND
M  V30 END CTAB
M  END
> <s_m_entry_id>
57

> <i_f3d_flags>
0

> <r_lp_tautomer_probability>
1

> <r_epik_Ionization_Penalty>
  0.0000

> <r_epik_State_Penalty>
  0.0000

> <i_epik_Tot_Q>
0

> <r_i_docking_score>
-6.0894523133866

> <r_i_glide_gscore>
-6.0894523133866

> <r_i_glide_emodel>
-56.939713073711

> <s_m_subgroup_title>
nsp13-core1_lib_top-500_pv

> <s_m_subgroupid>
nsp13-core1_lib_top-500_pv

> <b_m_subgroup_collapsed>
0

$$$$
Core_1_EN300-1605566_EN300-1605566
                    3D
 Schrodinger Suite 2023-1.
  0  0  0     0  0            999 V3000
M  V30 BEGIN CTAB
M  V30 COUNTS 47 50 0 0 0
M  V30 BEGIN ATOM
M  V30 1 C  -40.6849 37.3742 -2.1289 0
M  V30 2 C  -41.3458 36.1033 -1.6017 0
M  V30 3 N  -41.0583 35.0621 -2.5868 0
M  V30 4 C  -39.9596 35.4653 -3.4598 0
M  V30 5 C  -39.5886 36.9038 -3.0834 0 CFG=1
M  V30 6 N  -39.5513 37.7177 -4.2871 0
M  V30 7 C  -38.7828 38.7899 -4.5104 0
M  V30 8 C  -39.0123 39.4575 -5.8051 0
M  V30 9 C  -38.3513 40.5580 -6.2654 0
M  V30 10 C  -39.0030 40.7919 -7.5104 0
M  V30 11 N  -39.9630 39.9221 -7.7919 0
M  V30 12 N  -39.9514 39.0860 -6.7376 0
M  V30 13 O  -38.7511 41.7799 -8.4109 0
M  V30 14 O  -37.9513 39.2111 -3.7087 0
M  V30 15 C  -41.7106 33.8909 -2.7520 0
M  V30 16 C  -42.9094 33.5530 -1.8355 0 CFG=1
M  V30 17 C  -42.4150 33.1694 -0.4036 0
M  V30 18 N  -43.0292 31.8837 -0.0103 0 CHG=1
M  V30 19 C  -42.6393 30.8310 -0.9768 0
M  V30 20 C  -43.2471 31.1563 -2.3683 0
M  V30 21 N  -43.8572 32.5059 -2.3680 0 CFG=1
M  V30 22 C  -44.9890 32.4454 -1.4239 0
M  V30 23 C  -44.5052 32.0291 -0.0103 0
M  V30 24 O  -41.3659 33.0957 -3.6207 0
M  V30 25 H  -40.2945 38.0025 -1.3280 0
M  V30 26 H  -41.4319 37.9618 -2.6664 0
M  V30 27 H  -40.9031 35.8146 -0.6477 0
M  V30 28 H  -42.4082 36.2822 -1.4414 0
M  V30 29 H  -40.2803 35.3888 -4.5013 0
M  V30 30 H  -39.1042 34.7990 -3.3340 0
M  V30 31 H  -38.6295 36.9067 -2.5646 0
M  V30 32 H  -40.2263 37.4687 -5.0000 0
M  V30 33 H  -37.5513 41.1045 -5.7878 0
M  V30 34 H  -37.9675 42.2608 -8.1958 0
M  V30 35 H  -40.6281 38.3333 -6.6353 0
M  V30 36 H  -43.4957 34.4680 -1.7624 0
M  V30 37 H  -41.3285 33.0763 -0.3471 0
M  V30 38 H  -42.6907 33.9419 0.3159 0
M  V30 39 H  -41.5526 30.7748 -1.0312 0
M  V30 40 H  -42.9826 29.8573 -0.6242 0
M  V30 41 H  -44.0104 30.4173 -2.6179 0
M  V30 42 H  -42.4951 31.0356 -3.1457 0
M  V30 43 H  -45.4937 33.4116 -1.3802 0
M  V30 44 H  -45.7370 31.7349 -1.7764 0
M  V30 45 H  -44.9602 31.0847 0.2932 0
M  V30 46 H  -44.8044 32.7670 0.7357 0
M  V30 47 H  -42.7514 31.5972 0.9379 0
M  V30 END ATOM
M  V30 BEGIN BOND
M  V30 1 1 1 2
M  V30 2 1 1 5
M  V30 3 1 1 25
M  V30 4 1 1 26
M  V30 5 1 2 3
M  V30 6 1 2 27
M  V30 7 1 2 28
M  V30 8 1 3 4
M  V30 9 1 3 15
M  V30 10 1 4 5
M  V30 11 1 4 29
M  V30 12 1 4 30
M  V30 13 1 5 6
M  V30 14 1 5 31
M  V30 15 1 6 7
M  V30 16 1 6 32
M  V30 17 2 7 14
M  V30 18 1 7 8
M  V30 19 2 8 9
M  V30 20 1 8 12
M  V30 21 1 9 33
M  V30 22 1 9 10
M  V30 23 2 10 11
M  V30 24 1 10 13
M  V30 25 1 11 12
M  V30 26 1 12 35
M  V30 27 1 13 34
M  V30 28 1 15 16
M  V30 29 2 15 24
M  V30 30 1 16 17
M  V30 31 1 16 21
M  V30 32 1 16 36
M  V30 33 1 17 18
M  V30 34 1 17 37
M  V30 35 1 17 38
M  V30 36 1 18 19
M  V30 37 1 18 23
M  V30 38 1 18 47
M  V30 39 1 19 20
M  V30 40 1 19 39
M  V30 41 1 19 40
M  V30 42 1 20 21
M  V30 43 1 20 41
M  V30 44 1 20 42
M  V30 45 1 21 22
M  V30 46 1 22 23
M  V30 47 1 22 43
M  V30 48 1 22 44
M  V30 49 1 23 45
M  V30 50 1 23 46
M  V30 END BOND
M  V30 END CTAB
M  END
> <s_m_entry_id>
58

> <i_f3d_flags>
0

> <r_lp_tautomer_probability>
0.966084542645576

> <r_epik_Ionization_Penalty>
  0.4726

> <r_epik_State_Penalty>
  0.0036

> <i_epik_Tot_Q>
1

> <r_i_docking_score>
-6.08660117622217

> <r_i_glide_gscore>
-6.09020117622217

> <r_i_glide_emodel>
-56.2197510135982

> <s_m_subgroup_title>
nsp13-core1_lib_top-500_pv

> <s_m_subgroupid>
nsp13-core1_lib_top-500_pv

> <b_m_subgroup_collapsed>
0

$$$$
Core_1_EN300-15024_EN300-15024
                    3D
 Schrodinger Suite 2023-1.
  0  0  0     0  0            999 V3000
M  V30 BEGIN CTAB
M  V30 COUNTS 50 52 0 0 0
M  V30 BEGIN ATOM
M  V30 1 C  -40.7791 34.7999 -0.2273 0
M  V30 2 C  -39.9840 36.1039 -0.2950 0
M  V30 3 N  -39.9607 36.4986 -1.7027 0
M  V30 4 C  -40.8001 35.6103 -2.5028 0
M  V30 5 C  -41.6308 34.8074 -1.4919 0 CFG=1
M  V30 6 N  -41.9342 33.4588 -1.9545 0
M  V30 7 C  -42.7806 33.1683 -2.9576 0
M  V30 8 C  -42.9751 31.7059 -3.2282 0
M  V30 9 C  -43.9475 31.2561 -4.2812 0
M  V30 10 C  -43.9177 29.8189 -4.6123 0
M  V30 11 C  -43.1520 29.0033 -3.8717 0
M  V30 12 N  -42.3847 29.4837 -2.8102 0
M  V30 13 N  -42.2996 30.8290 -2.5447 0
M  V30 14 O  -44.7513 32.0159 -4.8103 0
M  V30 15 O  -43.3402 34.0529 -3.6101 0
M  V30 16 C  -39.2821 37.5760 -2.1491 0
M  V30 17 C  -39.3258 37.9220 -3.6472 0
M  V30 18 C  -38.7837 39.3347 -3.9459 0
M  V30 19 S  -38.6968 39.6794 -5.7467 0
M  V30 20 N  -40.3463 39.4838 -6.2611 0
M  V30 21 C  -41.2553 40.4356 -6.7331 0
M  V30 22 C  -40.8558 41.5200 -7.5445 0
M  V30 23 C  -41.8083 42.4488 -8.0082 0
M  V30 24 C  -43.1664 42.2944 -7.6727 0
M  V30 25 C  -43.5707 41.2112 -6.8703 0
M  V30 26 C  -42.6184 40.2839 -6.4075 0
M  V30 27 O  -37.9516 38.6011 -6.4103 0
M  V30 28 O  -38.3335 41.0899 -5.9444 0
M  V30 29 O  -38.6231 38.2845 -1.3868 0
M  V30 30 H  -40.0859 33.9588 -0.2381 0
M  V30 31 H  -41.3768 34.7197 0.6815 0
M  V30 32 H  -38.9769 35.9766 0.1058 0
M  V30 33 H  -40.4808 36.8824 0.2859 0
M  V30 34 H  -41.4578 36.1467 -3.1874 0
M  V30 35 H  -40.1529 34.9593 -3.0928 0
M  V30 36 H  -42.5586 35.3444 -1.2837 0
M  V30 37 H  -41.5155 32.6845 -1.4565 0
M  V30 38 H  -44.5141 29.4521 -5.4350 0
M  V30 39 H  -43.0712 27.9373 -4.0280 0
M  V30 40 H  -41.9508 28.8476 -2.1412 0
M  V30 41 H  -40.3514 37.8634 -4.0086 0
M  V30 42 H  -38.7525 37.1711 -4.1916 0
M  V30 43 H  -37.7744 39.4572 -3.5511 0
M  V30 44 H  -39.4071 40.1010 -3.4854 0
M  V30 45 H  -40.7716 38.5927 -6.0104 0
M  V30 46 H  -39.8220 41.6447 -7.8287 0
M  V30 47 H  -41.4948 43.2793 -8.6235 0
M  V30 48 H  -43.8970 43.0068 -8.0274 0
M  V30 49 H  -44.6118 41.0878 -6.6109 0
M  V30 50 H  -42.9422 39.4515 -5.7985 0
M  V30 END ATOM
M  V30 BEGIN BOND
M  V30 1 1 1 2
M  V30 2 1 1 5
M  V30 3 1 1 30
M  V30 4 1 1 31
M  V30 5 1 2 3
M  V30 6 1 2 32
M  V30 7 1 2 33
M  V30 8 1 3 4
M  V30 9 1 3 16
M  V30 10 1 4 5
M  V30 11 1 4 34
M  V30 12 1 4 35
M  V30 13 1 5 6
M  V30 14 1 5 36
M  V30 15 1 6 7
M  V30 16 1 6 37
M  V30 17 1 7 8
M  V30 18 2 7 15
M  V30 19 1 8 9
M  V30 20 2 8 13
M  V30 21 1 9 10
M  V30 22 2 9 14
M  V30 23 2 10 11
M  V30 24 1 10 38
M  V30 25 1 11 12
M  V30 26 1 11 39
M  V30 27 1 12 13
M  V30 28 1 12 40
M  V30 29 1 16 17
M  V30 30 2 16 29
M  V30 31 1 17 18
M  V30 32 1 17 41
M  V30 33 1 17 42
M  V30 34 1 18 19
M  V30 35 1 18 43
M  V30 36 1 18 44
M  V30 37 1 19 20
M  V30 38 2 19 27
M  V30 39 2 19 28
M  V30 40 1 20 21
M  V30 41 1 20 45
M  V30 42 2 21 22
M  V30 43 1 21 26
M  V30 44 1 22 23
M  V30 45 1 22 46
M  V30 46 2 23 24
M  V30 47 1 23 47
M  V30 48 1 24 25
M  V30 49 1 24 48
M  V30 50 2 25 26
M  V30 51 1 25 49
M  V30 52 1 26 50
M  V30 END BOND
M  V30 END CTAB
M  END
> <s_m_entry_id>
59

> <i_f3d_flags>
0

> <r_lp_tautomer_probability>
0.999746388232414

> <r_epik_Ionization_Penalty>
  0.4805

> <r_epik_State_Penalty>
  0.1449

> <i_epik_Tot_Q>
0

> <r_i_docking_score>
-6.08092801917996

> <r_i_glide_gscore>
-6.22582801917996

> <r_i_glide_emodel>
-66.2354984910708

> <s_m_subgroup_title>
nsp13-core1_lib_top-500_pv

> <s_m_subgroupid>
nsp13-core1_lib_top-500_pv

> <b_m_subgroup_collapsed>
0

$$$$
Core_1_EN300-113282_EN300-113282
                    3D
 Schrodinger Suite 2023-1.
  0  0  0     0  0            999 V3000
M  V30 BEGIN CTAB
M  V30 COUNTS 41 44 0 0 0
M  V30 BEGIN ATOM
M  V30 1 C  -36.6573 40.4281 -3.4742 0
M  V30 2 C  -37.6205 39.5569 -4.2459 0
M  V30 3 C  -37.6579 39.3969 -5.6628 0
M  V30 4 N  -38.5963 38.5574 -6.0749 0
M  V30 5 N  -39.1913 38.1492 -4.9357 0
M  V30 6 C  -38.6400 38.7384 -3.8208 0
M  V30 7 C  -39.0452 38.5413 -2.3936 0
M  V30 8 N  -39.8561 37.5223 -2.0128 0
M  V30 9 C  -40.1132 37.2578 -0.5937 0
M  V30 10 C  -40.8397 35.9183 -0.5243 0
M  V30 11 C  -41.5407 35.8201 -1.8704 0 CFG=1
M  V30 12 C  -40.6077 36.5736 -2.8392 0
M  V30 13 N  -41.7865 34.4326 -2.2528 0
M  V30 14 C  -42.7821 34.0375 -3.0608 0
M  V30 15 C  -42.9003 32.5864 -3.3033 0
M  V30 16 C  -42.4043 31.5045 -2.5679 0
M  V30 17 C  -42.8647 30.4479 -3.2905 0
M  V30 18 C  -43.5619 30.8521 -4.3195 0
M  V30 19 C  -44.0491 29.7445 -5.0487 0
M  V30 20 C  -43.5481 28.6543 -4.3448 0
M  V30 21 N  -42.8123 29.0873 -3.2208 0
M  V30 22 O  -43.6545 32.1888 -4.4118 0
M  V30 23 O  -43.5511 34.8246 -3.6102 0
M  V30 24 O  -38.5851 39.3079 -1.5460 0
M  V30 25 H  -36.0542 41.0540 -4.1297 0
M  V30 26 H  -37.1718 41.1025 -2.7914 0
M  V30 27 H  -35.9600 39.8357 -2.8811 0
M  V30 28 H  -37.0353 39.8707 -6.4088 0
M  V30 29 H  -39.9927 37.5240 -4.9578 0
M  V30 30 H  -40.7450 38.0532 -0.1949 0
M  V30 31 H  -39.1944 37.2357 -0.0072 0
M  V30 32 H  -41.5283 35.8556 0.3202 0
M  V30 33 H  -40.1080 35.1164 -0.4132 0
M  V30 34 H  -42.4888 36.3565 -1.7938 0
M  V30 35 H  -39.9095 35.8924 -3.3303 0
M  V30 36 H  -41.1891 37.0828 -3.6103 0
M  V30 37 H  -41.1943 33.7228 -1.8417 0
M  V30 38 H  -41.8143 31.5066 -1.6667 0
M  V30 39 H  -44.6538 29.7307 -5.9414 0
M  V30 40 H  -43.6551 27.5992 -4.5357 0
M  V30 41 H  -42.3522 28.5177 -2.5196 0
M  V30 END ATOM
M  V30 BEGIN BOND
M  V30 1 1 1 25
M  V30 2 1 1 26
M  V30 3 1 1 27
M  V30 4 1 1 2
M  V30 5 2 2 6
M  V30 6 1 2 3
M  V30 7 1 3 28
M  V30 8 2 3 4
M  V30 9 1 4 5
M  V30 10 1 5 29
M  V30 11 1 5 6
M  V30 12 1 6 7
M  V30 13 1 7 8
M  V30 14 2 7 24
M  V30 15 1 8 9
M  V30 16 1 8 12
M  V30 17 1 9 10
M  V30 18 1 9 30
M  V30 19 1 9 31
M  V30 20 1 10 11
M  V30 21 1 10 32
M  V30 22 1 10 33
M  V30 23 1 11 12
M  V30 24 1 11 13
M  V30 25 1 11 34
M  V30 26 1 12 35
M  V30 27 1 12 36
M  V30 28 1 13 14
M  V30 29 1 13 37
M  V30 30 1 14 15
M  V30 31 2 14 23
M  V30 32 2 15 16
M  V30 33 1 15 22
M  V30 34 1 16 17
M  V30 35 1 16 38
M  V30 36 2 17 18
M  V30 37 1 17 21
M  V30 38 1 18 19
M  V30 39 1 18 22
M  V30 40 2 19 20
M  V30 41 1 19 39
M  V30 42 1 20 21
M  V30 43 1 20 40
M  V30 44 1 21 41
M  V30 END BOND
M  V30 END CTAB
M  END
> <s_m_entry_id>
60

> <i_f3d_flags>
0

> <r_lp_tautomer_probability>
0.5

> <r_epik_Ionization_Penalty>
  0.0000

> <r_epik_State_Penalty>
  0.4107

> <i_epik_Tot_Q>
0

> <r_i_docking_score>
-6.08009073607586

> <r_i_glide_gscore>
-6.49079073607586

> <r_i_glide_emodel>
-55.0726221374375

> <s_m_subgroup_title>
nsp13-core1_lib_top-500_pv

> <s_m_subgroupid>
nsp13-core1_lib_top-500_pv

> <b_m_subgroup_collapsed>
0

$$$$
Core_1_EN300-69795_EN300-69795
                    3D
 Schrodinger Suite 2023-1.
  0  0  0     0  0            999 V3000
M  V30 BEGIN CTAB
M  V30 COUNTS 43 46 0 0 0
M  V30 BEGIN ATOM
M  V30 1 C  -40.8595 37.6139 -1.7373 0
M  V30 2 C  -42.2802 37.1346 -2.0275 0
M  V30 3 N  -42.1335 35.7761 -2.5406 0
M  V30 4 C  -40.7462 35.5334 -2.9541 0
M  V30 5 C  -40.0024 36.8692 -2.7584 0 CFG=1
M  V30 6 N  -39.9513 37.6157 -4.0103 0
M  V30 7 C  -39.2106 38.7027 -4.2744 0
M  V30 8 C  -39.6623 39.4756 -5.4774 0
M  V30 9 C  -41.0149 39.8839 -5.5815 0
M  V30 10 N  -41.4741 40.5971 -6.6326 0
M  V30 11 C  -40.5667 40.9115 -7.5798 0
M  V30 12 C  -39.2158 40.5103 -7.4871 0
M  V30 13 N  -38.7577 39.7898 -6.4383 0
M  V30 14 O  -38.3514 40.8373 -8.4848 0
M  V30 15 O  -38.2645 39.0834 -3.5863 0
M  V30 16 C  -43.1956 34.9686 -2.7589 0
M  V30 17 C  -42.9613 33.4872 -2.8585 0
M  V30 18 C  -42.2159 32.8238 -1.8589 0
M  V30 19 C  -42.0994 31.4242 -1.8732 0
M  V30 20 C  -42.7277 30.6870 -2.8900 0
M  V30 21 C  -43.5041 31.3156 -3.9065 0
M  V30 22 C  -44.0328 30.2830 -4.7575 0
M  V30 23 C  -43.5512 29.0898 -4.2839 0
M  V30 24 N  -42.7846 29.3338 -3.1574 0
M  V30 25 C  -43.6071 32.7281 -3.8645 0
M  V30 26 O  -44.3511 35.3899 -2.8099 0
M  V30 27 H  -40.5723 37.3021 -0.7320 0
M  V30 28 H  -40.7605 38.6992 -1.7803 0
M  V30 29 H  -42.9045 37.1684 -1.1334 0
M  V30 30 H  -42.7473 37.7571 -2.7928 0
M  V30 31 H  -40.6859 35.1695 -3.9814 0
M  V30 32 H  -40.3039 34.7744 -2.3087 0
M  V30 33 H  -38.9865 36.7074 -2.3932 0
M  V30 34 H  -40.6624 37.3817 -4.6989 0
M  V30 35 H  -41.7380 39.6370 -4.8172 0
M  V30 36 H  -40.9246 41.4983 -8.4104 0
M  V30 37 H  -41.7598 33.3792 -1.0511 0
M  V30 38 H  -41.5514 30.9212 -1.0901 0
M  V30 39 H  -44.6770 30.4273 -5.6104 0
M  V30 40 H  -43.7038 28.0839 -4.6485 0
M  V30 41 H  -42.3520 28.6037 -2.6013 0
M  V30 42 H  -44.2102 33.2291 -4.6068 0
M  V30 43 H  -37.4396 40.6839 -8.2458 0
M  V30 END ATOM
M  V30 BEGIN BOND
M  V30 1 1 1 2
M  V30 2 1 1 5
M  V30 3 1 1 27
M  V30 4 1 1 28
M  V30 5 1 2 3
M  V30 6 1 2 29
M  V30 7 1 2 30
M  V30 8 1 3 4
M  V30 9 1 3 16
M  V30 10 1 4 5
M  V30 11 1 4 31
M  V30 12 1 4 32
M  V30 13 1 5 6
M  V30 14 1 5 33
M  V30 15 1 6 7
M  V30 16 1 6 34
M  V30 17 2 7 15
M  V30 18 1 7 8
M  V30 19 2 8 9
M  V30 20 1 8 13
M  V30 21 1 9 10
M  V30 22 1 9 35
M  V30 23 2 10 11
M  V30 24 1 11 12
M  V30 25 1 11 36
M  V30 26 1 12 14
M  V30 27 2 12 13
M  V30 28 1 14 43
M  V30 29 1 16 17
M  V30 30 2 16 26
M  V30 31 2 17 18
M  V30 32 1 17 25
M  V30 33 1 18 19
M  V30 34 1 18 37
M  V30 35 2 19 20
M  V30 36 1 19 38
M  V30 37 1 20 21
M  V30 38 1 20 24
M  V30 39 1 21 22
M  V30 40 2 21 25
M  V30 41 2 22 23
M  V30 42 1 22 39
M  V30 43 1 23 24
M  V30 44 1 23 40
M  V30 45 1 24 41
M  V30 46 1 25 42
M  V30 END BOND
M  V30 END CTAB
M  END
> <s_m_entry_id>
61

> <i_f3d_flags>
0

> <r_lp_tautomer_probability>
1

> <r_epik_Ionization_Penalty>
  2.2295

> <r_epik_State_Penalty>
  0.0000

> <i_epik_Tot_Q>
0

> <r_i_docking_score>
-6.08001279193743

> <r_i_glide_gscore>
-6.08001279193743

> <r_i_glide_emodel>
-57.4128535410605

> <s_m_subgroup_title>
nsp13-core1_lib_top-500_pv

> <s_m_subgroupid>
nsp13-core1_lib_top-500_pv

> <b_m_subgroup_collapsed>
0

$$$$
Core_1_EN300-134570_EN300-134570
                    3D
 Schrodinger Suite 2023-1.
  0  0  0     0  0            999 V3000
M  V30 BEGIN CTAB
M  V30 COUNTS 44 47 0 0 0
M  V30 BEGIN ATOM
M  V30 1 C  -39.1952 41.6239 -6.8511 0
M  V30 2 S  -40.0748 40.0144 -6.7998 0 CFG=2
M  V30 3 C  -41.1727 40.1777 -5.3739 0
M  V30 4 C  -40.8311 39.6072 -4.2118 0
M  V30 5 C  -39.5739 38.8964 -4.0499 0
M  V30 6 C  -38.7275 38.6535 -5.0738 0
M  V30 7 N  -38.9743 38.9546 -6.4109 0
M  V30 8 C  -39.1524 38.5262 -2.7051 0
M  V30 9 N  -39.7756 37.4426 -2.1850 0
M  V30 10 C  -39.5046 36.9705 -0.8276 0
M  V30 11 C  -40.2677 35.6553 -0.6593 0
M  V30 12 C  -41.3408 35.6781 -1.7431 0 CFG=1
M  V30 13 C  -40.7458 36.5646 -2.8465 0
M  V30 14 N  -41.6656 34.3302 -2.1960 0
M  V30 15 C  -42.6531 34.0103 -3.0447 0
M  V30 16 C  -42.8339 32.5733 -3.3083 0
M  V30 17 C  -42.3521 31.4731 -2.5973 0
M  V30 18 C  -42.8505 30.4419 -3.3274 0
M  V30 19 C  -43.5556 30.8711 -4.3414 0
M  V30 20 C  -44.0587 29.7792 -5.0855 0
M  V30 21 C  -43.5513 28.6742 -4.4100 0
M  V30 22 N  -42.8076 29.0830 -3.2835 0
M  V30 23 O  -43.6185 32.2131 -4.4102 0
M  V30 24 O  -43.3600 34.8431 -3.6101 0
M  V30 25 O  -38.2905 39.1439 -2.0799 0
M  V30 26 O  -40.9045 39.8842 -8.0102 0
M  V30 27 H  -38.6257 41.7510 -5.9293 0
M  V30 28 H  -38.5125 41.6311 -7.7001 0
M  V30 29 H  -39.9192 42.4312 -6.9503 0
M  V30 30 H  -42.0926 40.7169 -5.5400 0
M  V30 31 H  -41.5074 39.6897 -3.3739 0
M  V30 32 H  -37.7885 38.1483 -4.8955 0
M  V30 33 H  -39.8643 37.7140 -0.1133 0
M  V30 34 H  -38.4361 36.8303 -0.6576 0
M  V30 35 H  -40.6875 35.5456 0.3418 0
M  V30 36 H  -39.5781 34.8242 -0.8162 0
M  V30 37 H  -42.2352 36.1600 -1.3413 0
M  V30 38 H  -40.2219 35.9692 -3.5954 0
M  V30 39 H  -41.5376 37.1148 -3.3571 0
M  V30 40 H  -41.1284 33.5749 -1.7995 0
M  V30 41 H  -41.7424 31.4412 -1.7065 0
M  V30 42 H  -44.6705 29.7841 -5.9744 0
M  V30 43 H  -43.6614 27.6213 -4.6260 0
M  V30 44 H  -42.3514 28.4966 -2.5916 0
M  V30 END ATOM
M  V30 BEGIN BOND
M  V30 1 1 1 2
M  V30 2 1 1 27
M  V30 3 1 1 28
M  V30 4 1 1 29
M  V30 5 1 2 3
M  V30 6 2 2 26
M  V30 7 2 2 7
M  V30 8 2 3 4
M  V30 9 1 3 30
M  V30 10 1 4 5
M  V30 11 1 4 31
M  V30 12 2 5 6
M  V30 13 1 5 8
M  V30 14 1 6 7
M  V30 15 1 6 32
M  V30 16 1 8 9
M  V30 17 2 8 25
M  V30 18 1 9 10
M  V30 19 1 9 13
M  V30 20 1 10 11
M  V30 21 1 10 33
M  V30 22 1 10 34
M  V30 23 1 11 12
M  V30 24 1 11 35
M  V30 25 1 11 36
M  V30 26 1 12 13
M  V30 27 1 12 14
M  V30 28 1 12 37
M  V30 29 1 13 38
M  V30 30 1 13 39
M  V30 31 1 14 15
M  V30 32 1 14 40
M  V30 33 1 15 16
M  V30 34 2 15 24
M  V30 35 2 16 17
M  V30 36 1 16 23
M  V30 37 1 17 18
M  V30 38 1 17 41
M  V30 39 2 18 19
M  V30 40 1 18 22
M  V30 41 1 19 20
M  V30 42 1 19 23
M  V30 43 2 20 21
M  V30 44 1 20 42
M  V30 45 1 21 22
M  V30 46 1 21 43
M  V30 47 1 22 44
M  V30 END BOND
M  V30 END CTAB
M  END
> <s_m_entry_id>
63

> <i_f3d_flags>
0

> <r_lp_tautomer_probability>
1

> <r_epik_Ionization_Penalty>
  0.0000

> <r_epik_State_Penalty>
  0.0000

> <i_epik_Tot_Q>
0

> <r_i_docking_score>
-6.07749948437674

> <r_i_glide_gscore>
-6.07749948437674

> <r_i_glide_emodel>
-59.048828382463

> <s_m_subgroup_title>
nsp13-core1_lib_top-500_pv

> <s_m_subgroupid>
nsp13-core1_lib_top-500_pv

> <b_m_subgroup_collapsed>
0

$$$$
Core_1_EN300-34897_EN300-34897
                    3D
 Schrodinger Suite 2023-1.
  0  0  0     0  0            999 V3000
M  V30 BEGIN CTAB
M  V30 COUNTS 45 49 0 0 0
M  V30 BEGIN ATOM
M  V30 1 C  -41.9246 39.8744 -3.4164 0
M  V30 2 C  -40.8004 39.5833 -4.3983 0
M  V30 3 C  -39.5426 38.9910 -4.1043 0
M  V30 4 C  -38.5798 38.8165 -5.1132 0
M  V30 5 N  -38.7503 39.1219 -6.4106 0
M  V30 6 C  -39.9673 39.6389 -6.7038 0
M  V30 7 N  -40.4446 39.9946 -7.9003 0
M  V30 8 N  -41.7465 40.4579 -7.7260 0
M  V30 9 C  -42.0404 40.3876 -6.4278 0
M  V30 10 N  -40.9752 39.8842 -5.7530 0
M  V30 11 C  -39.1792 38.5715 -2.7122 0
M  V30 12 N  -39.7895 37.4805 -2.1988 0
M  V30 13 C  -39.5784 37.0396 -0.8208 0
M  V30 14 C  -40.3273 35.7155 -0.6687 0
M  V30 15 C  -41.3522 35.7159 -1.7963 0 CFG=1
M  V30 16 C  -40.7018 36.5706 -2.8961 0
M  V30 17 N  -41.6635 34.3566 -2.2301 0
M  V30 18 C  -42.6636 34.0198 -3.0556 0
M  V30 19 C  -42.8362 32.5797 -3.3124 0
M  V30 20 C  -42.3516 31.4820 -2.5980 0
M  V30 21 C  -42.8482 30.4444 -3.3208 0
M  V30 22 C  -43.5562 30.8683 -4.3351 0
M  V30 23 C  -44.0545 29.7696 -5.0763 0
M  V30 24 C  -43.5490 28.6679 -4.3944 0
M  V30 25 N  -42.8062 29.0839 -3.2697 0
M  V30 26 O  -43.6241 32.2101 -4.4113 0
M  V30 27 O  -43.3890 34.8440 -3.6091 0
M  V30 28 O  -38.3469 39.2257 -2.0852 0
M  V30 29 H  -41.6648 39.6282 -2.3855 0
M  V30 30 H  -42.1832 40.9342 -3.4458 0
M  V30 31 H  -42.8122 39.2964 -3.6814 0
M  V30 32 H  -37.6134 38.3923 -4.8683 0
M  V30 33 H  -42.9866 40.6662 -5.9880 0
M  V30 34 H  -39.9891 37.7897 -0.1417 0
M  V30 35 H  -38.5155 36.9272 -0.5919 0
M  V30 36 H  -40.7852 35.6085 0.3132 0
M  V30 37 H  -39.6191 34.8969 -0.7954 0
M  V30 38 H  -42.2584 36.2133 -1.4485 0
M  V30 39 H  -40.1158 35.9558 -3.5824 0
M  V30 40 H  -41.4633 37.0846 -3.4814 0
M  V30 41 H  -41.1142 33.6109 -1.8296 0
M  V30 42 H  -41.7410 31.4587 -1.7089 0
M  V30 43 H  -44.6638 29.7663 -5.9698 0
M  V30 44 H  -43.6640 27.6131 -4.6007 0
M  V30 45 H  -42.3521 28.5024 -2.5741 0
M  V30 END ATOM
M  V30 BEGIN BOND
M  V30 1 1 1 2
M  V30 2 1 1 29
M  V30 3 1 1 30
M  V30 4 1 1 31
M  V30 5 2 2 3
M  V30 6 1 2 10
M  V30 7 1 3 4
M  V30 8 1 3 11
M  V30 9 2 4 5
M  V30 10 1 4 32
M  V30 11 1 5 6
M  V30 12 2 6 7
M  V30 13 1 6 10
M  V30 14 1 7 8
M  V30 15 2 8 9
M  V30 16 1 9 10
M  V30 17 1 9 33
M  V30 18 1 11 12
M  V30 19 2 11 28
M  V30 20 1 12 13
M  V30 21 1 12 16
M  V30 22 1 13 14
M  V30 23 1 13 34
M  V30 24 1 13 35
M  V30 25 1 14 15
M  V30 26 1 14 36
M  V30 27 1 14 37
M  V30 28 1 15 16
M  V30 29 1 15 17
M  V30 30 1 15 38
M  V30 31 1 16 39
M  V30 32 1 16 40
M  V30 33 1 17 18
M  V30 34 1 17 41
M  V30 35 1 18 19
M  V30 36 2 18 27
M  V30 37 2 19 20
M  V30 38 1 19 26
M  V30 39 1 20 21
M  V30 40 1 20 42
M  V30 41 2 21 22
M  V30 42 1 21 25
M  V30 43 1 22 23
M  V30 44 1 22 26
M  V30 45 2 23 24
M  V30 46 1 23 43
M  V30 47 1 24 25
M  V30 48 1 24 44
M  V30 49 1 25 45
M  V30 END BOND
M  V30 END CTAB
M  END
> <s_m_entry_id>
64

> <i_f3d_flags>
0

> <r_lp_tautomer_probability>
1

> <r_epik_Ionization_Penalty>
  0.0000

> <r_epik_State_Penalty>
  0.0000

> <i_epik_Tot_Q>
0

> <r_i_docking_score>
-6.07315550152119

> <r_i_glide_gscore>
-6.07315550152119

> <r_i_glide_emodel>
-60.0589620019162

> <s_m_subgroup_title>
nsp13-core1_lib_top-500_pv

> <s_m_subgroupid>
nsp13-core1_lib_top-500_pv

> <b_m_subgroup_collapsed>
0

$$$$
Core_1_EN300-75745_EN300-75745
                    3D
 Schrodinger Suite 2023-1.
  0  0  0     0  0            999 V3000
M  V30 BEGIN CTAB
M  V30 COUNTS 42 44 0 0 0
M  V30 BEGIN ATOM
M  V30 1 C  -40.1600 40.1642 -6.6130 0
M  V30 2 S  -38.3528 40.0224 -6.2191 0 CFG=1
M  V30 3 C  -38.4671 39.8444 -4.3725 0
M  V30 4 C  -39.1484 38.5099 -4.0037 0
M  V30 5 C  -39.1531 38.2554 -2.4869 0
M  V30 6 N  -39.9102 37.2487 -1.9975 0
M  V30 7 C  -39.9658 36.9236 -0.5724 0
M  V30 8 C  -40.7610 35.6236 -0.4663 0
M  V30 9 C  -41.6099 35.5942 -1.7307 0 CFG=1
M  V30 10 C  -40.7760 36.3580 -2.7690 0
M  V30 11 N  -41.9007 34.2300 -2.1420 0
M  V30 12 C  -42.8482 33.8916 -3.0244 0
M  V30 13 C  -42.9864 32.4524 -3.2936 0
M  V30 14 C  -42.4820 31.3648 -2.5798 0
M  V30 15 C  -42.9327 30.3233 -3.3236 0
M  V30 16 C  -43.6370 30.7338 -4.3457 0
M  V30 17 C  -44.0862 29.6284 -5.1066 0
M  V30 18 C  -43.5514 28.5382 -4.4246 0
M  V30 19 N  -42.8335 28.9680 -3.2888 0
M  V30 20 O  -43.7423 32.0738 -4.4099 0
M  V30 21 O  -43.5525 34.7113 -3.6102 0
M  V30 22 O  -38.4650 38.9628 -1.7484 0
M  V30 23 O  -37.8768 38.6838 -6.7812 0
M  V30 24 H  -40.6199 40.9693 -6.0395 0
M  V30 25 H  -40.6820 39.2333 -6.3956 0
M  V30 26 H  -40.2877 40.3833 -7.6746 0
M  V30 27 H  -37.4531 39.8846 -3.9689 0
M  V30 28 H  -39.0197 40.6905 -3.9602 0
M  V30 29 H  -40.1758 38.5169 -4.3722 0
M  V30 30 H  -38.6372 37.6737 -4.4808 0
M  V30 31 H  -38.9691 36.8165 -0.1376 0
M  V30 32 H  -40.4816 37.7286 -0.0486 0
M  V30 33 H  -40.0639 34.7837 -0.4557 0
M  V30 34 H  -41.3576 35.5724 0.4458 0
M  V30 35 H  -42.5376 36.1417 -1.5453 0
M  V30 36 H  -41.4244 36.8997 -3.4596 0
M  V30 37 H  -40.1497 35.6807 -3.3559 0
M  V30 38 H  -41.3589 33.4909 -1.7166 0
M  V30 39 H  -41.8826 31.3489 -1.6805 0
M  V30 40 H  -44.6814 29.6125 -6.0089 0
M  V30 41 H  -43.6211 27.4840 -4.6452 0
M  V30 42 H  -42.3524 28.3990 -2.5966 0
M  V30 END ATOM
M  V30 BEGIN BOND
M  V30 1 1 1 2
M  V30 2 1 1 24
M  V30 3 1 1 25
M  V30 4 1 1 26
M  V30 5 1 2 3
M  V30 6 2 2 23
M  V30 7 1 3 4
M  V30 8 1 3 27
M  V30 9 1 3 28
M  V30 10 1 4 5
M  V30 11 1 4 29
M  V30 12 1 4 30
M  V30 13 1 5 6
M  V30 14 2 5 22
M  V30 15 1 6 7
M  V30 16 1 6 10
M  V30 17 1 7 8
M  V30 18 1 7 31
M  V30 19 1 7 32
M  V30 20 1 8 9
M  V30 21 1 8 33
M  V30 22 1 8 34
M  V30 23 1 9 10
M  V30 24 1 9 11
M  V30 25 1 9 35
M  V30 26 1 10 36
M  V30 27 1 10 37
M  V30 28 1 11 12
M  V30 29 1 11 38
M  V30 30 1 12 13
M  V30 31 2 12 21
M  V30 32 2 13 14
M  V30 33 1 13 20
M  V30 34 1 14 15
M  V30 35 1 14 39
M  V30 36 2 15 16
M  V30 37 1 15 19
M  V30 38 1 16 17
M  V30 39 1 16 20
M  V30 40 2 17 18
M  V30 41 1 17 40
M  V30 42 1 18 19
M  V30 43 1 18 41
M  V30 44 1 19 42
M  V30 END BOND
M  V30 END CTAB
M  END
> <s_m_entry_id>
65

> <i_f3d_flags>
0

> <r_lp_tautomer_probability>
1

> <r_epik_Ionization_Penalty>
  0.0000

> <r_epik_State_Penalty>
  0.0000

> <i_epik_Tot_Q>
0

> <r_i_docking_score>
-6.07274806190652

> <r_i_glide_gscore>
-6.07274806190652

> <r_i_glide_emodel>
-54.7482804118028

> <s_m_subgroup_title>
nsp13-core1_lib_top-500_pv

> <s_m_subgroupid>
nsp13-core1_lib_top-500_pv

> <b_m_subgroup_collapsed>
0

$$$$
Core_1_EN300-7540875_EN300-7540875
                    3D
 Schrodinger Suite 2023-1.
  0  0  0     0  0            999 V3000
M  V30 BEGIN CTAB
M  V30 COUNTS 42 46 0 0 0
M  V30 BEGIN ATOM
M  V30 1 C  -40.3831 35.7095 -0.5988 0
M  V30 2 C  -39.6324 37.0302 -0.7645 0
M  V30 3 N  -39.8495 37.4651 -2.1430 0
M  V30 4 C  -40.8189 36.5961 -2.8103 0
M  V30 5 C  -41.4307 35.7142 -1.7080 0 CFG=1
M  V30 6 N  -41.7305 34.3579 -2.1516 0
M  V30 7 C  -42.6888 34.0206 -3.0261 0
M  V30 8 C  -42.8445 32.5793 -3.2922 0
M  V30 9 C  -42.3526 31.4811 -2.5822 0
M  V30 10 C  -42.8449 30.4447 -3.3116 0
M  V30 11 C  -43.5547 30.8714 -4.3240 0
M  V30 12 C  -44.0565 29.7762 -5.0665 0
M  V30 13 C  -43.5517 28.6736 -4.3855 0
M  V30 14 N  -42.8044 29.0841 -3.2623 0
M  V30 15 O  -43.6250 32.2128 -4.3949 0
M  V30 16 O  -43.3910 34.8442 -3.6091 0
M  V30 17 C  -39.1515 38.4747 -2.7023 0
M  V30 18 C  -39.4937 38.8839 -4.1011 0
M  V30 19 C  -38.5473 38.7277 -5.1480 0
M  V30 20 N  -38.7514 39.0845 -6.4141 0
M  V30 21 C  -39.9336 39.6700 -6.6848 0
M  V30 22 N  -40.4194 40.1361 -7.8316 0
M  V30 23 C  -41.6392 40.6326 -7.4802 0
M  V30 24 N  -41.9850 40.5077 -6.2066 0
M  V30 25 N  -40.8964 39.8843 -5.6853 0
M  V30 26 C  -40.6976 39.4875 -4.3975 0
M  V30 27 O  -38.2542 39.0749 -2.1137 0
M  V30 28 H  -40.8250 35.6011 0.3918 0
M  V30 29 H  -39.6832 34.8861 -0.7415 0
M  V30 30 H  -40.0389 37.7841 -0.0867 0
M  V30 31 H  -38.5706 36.9102 -0.5350 0
M  V30 32 H  -40.2926 35.9935 -3.5542 0
M  V30 33 H  -41.5996 37.1556 -3.3277 0
M  V30 34 H  -42.3388 36.1911 -1.3322 0
M  V30 35 H  -41.1994 33.6126 -1.7261 0
M  V30 36 H  -41.7439 31.4589 -1.6924 0
M  V30 37 H  -44.6677 29.7729 -5.9564 0
M  V30 38 H  -43.6614 27.6192 -4.5966 0
M  V30 39 H  -42.3503 28.4999 -2.5674 0
M  V30 40 H  -37.5799 38.2838 -4.9355 0
M  V30 41 H  -42.2966 41.1070 -8.1933 0
M  V30 42 H  -41.4880 39.6797 -3.6819 0
M  V30 END ATOM
M  V30 BEGIN BOND
M  V30 1 1 1 2
M  V30 2 1 1 5
M  V30 3 1 1 28
M  V30 4 1 1 29
M  V30 5 1 2 3
M  V30 6 1 2 30
M  V30 7 1 2 31
M  V30 8 1 3 4
M  V30 9 1 3 17
M  V30 10 1 4 5
M  V30 11 1 4 32
M  V30 12 1 4 33
M  V30 13 1 5 6
M  V30 14 1 5 34
M  V30 15 1 6 7
M  V30 16 1 6 35
M  V30 17 1 7 8
M  V30 18 2 7 16
M  V30 19 2 8 9
M  V30 20 1 8 15
M  V30 21 1 9 10
M  V30 22 1 9 36
M  V30 23 2 10 11
M  V30 24 1 10 14
M  V30 25 1 11 12
M  V30 26 1 11 15
M  V30 27 2 12 13
M  V30 28 1 12 37
M  V30 29 1 13 14
M  V30 30 1 13 38
M  V30 31 1 14 39
M  V30 32 1 17 18
M  V30 33 2 17 27
M  V30 34 1 18 19
M  V30 35 2 18 26
M  V30 36 2 19 20
M  V30 37 1 19 40
M  V30 38 1 20 21
M  V30 39 2 21 22
M  V30 40 1 21 25
M  V30 41 1 22 23
M  V30 42 2 23 24
M  V30 43 1 23 41
M  V30 44 1 24 25
M  V30 45 1 25 26
M  V30 46 1 26 42
M  V30 END BOND
M  V30 END CTAB
M  END
> <s_m_entry_id>
66

> <i_f3d_flags>
0

> <r_lp_tautomer_probability>
1

> <r_epik_Ionization_Penalty>
  0.0000

> <r_epik_State_Penalty>
  0.0000

> <i_epik_Tot_Q>
0

> <r_i_docking_score>
-6.0683907984294

> <r_i_glide_gscore>
-6.0683907984294

> <r_i_glide_emodel>
-59.5284488097957

> <s_m_subgroup_title>
nsp13-core1_lib_top-500_pv

> <s_m_subgroupid>
nsp13-core1_lib_top-500_pv

> <b_m_subgroup_collapsed>
0

$$$$
Core_1_EN300-131572_EN300-131572
                    3D
 Schrodinger Suite 2023-1.
  0  0  0     0  0            999 V3000
M  V30 BEGIN CTAB
M  V30 COUNTS 43 47 0 0 0
M  V30 BEGIN ATOM
M  V30 1 C  -40.4398 35.8209 -0.6394 0
M  V30 2 C  -39.6871 37.1425 -0.7650 0
M  V30 3 N  -39.6283 37.4527 -2.1899 0
M  V30 4 C  -40.4824 36.5289 -2.9420 0
M  V30 5 C  -41.3092 35.7701 -1.8883 0 CFG=1
M  V30 6 N  -41.6241 34.3947 -2.2731 0
M  V30 7 C  -42.6487 34.0398 -3.0654 0
M  V30 8 C  -42.8251 32.5943 -3.3038 0
M  V30 9 C  -42.3536 31.5045 -2.5694 0
M  V30 10 C  -42.8510 30.4602 -3.2849 0
M  V30 11 C  -43.5537 30.8773 -4.3074 0
M  V30 12 C  -44.0572 29.7716 -5.0369 0
M  V30 13 C  -43.5506 28.6778 -4.3409 0
M  V30 14 N  -42.8053 29.0978 -3.2207 0
M  V30 15 O  -43.6143 32.2191 -4.4004 0
M  V30 16 O  -43.3962 34.8555 -3.6095 0
M  V30 17 C  -38.9599 38.5391 -2.6470 0
M  V30 18 C  -38.9128 38.8109 -4.1214 0
M  V30 19 C  -38.7560 37.9028 -5.2154 0
M  V30 20 N  -38.6850 38.5245 -6.4101 0
M  V30 21 N  -38.7741 39.8585 -6.1508 0
M  V30 22 C  -38.7474 40.9152 -7.0615 0
M  V30 23 C  -38.8172 42.1823 -6.4165 0
M  V30 24 N  -38.9071 42.4196 -5.0845 0
M  V30 25 C  -38.9440 41.3538 -4.2607 0
M  V30 26 C  -38.8833 40.0523 -4.7941 0
M  V30 27 O  -38.3981 39.3298 -1.8889 0
M  V30 28 H  -41.0201 35.7511 0.2806 0
M  V30 29 H  -39.7221 35.0003 -0.6401 0
M  V30 30 H  -40.2350 37.9345 -0.2538 0
M  V30 31 H  -38.6934 37.0830 -0.3218 0
M  V30 32 H  -39.8550 35.8444 -3.5150 0
M  V30 33 H  -41.1421 37.0568 -3.6297 0
M  V30 34 H  -42.2307 36.3251 -1.6896 0
M  V30 35 H  -41.0628 33.6562 -1.8699 0
M  V30 36 H  -41.7449 31.4860 -1.6764 0
M  V30 37 H  -44.6635 29.7651 -5.9320 0
M  V30 38 H  -43.6639 27.6203 -4.5379 0
M  V30 39 H  -42.3536 28.5169 -2.5211 0
M  V30 40 H  -38.6963 36.8265 -5.2003 0
M  V30 41 H  -38.6588 40.7366 -8.1234 0
M  V30 42 H  -38.7868 43.0725 -7.0290 0
M  V30 43 H  -39.0139 41.5302 -3.1973 0
M  V30 END ATOM
M  V30 BEGIN BOND
M  V30 1 1 1 2
M  V30 2 1 1 5
M  V30 3 1 1 28
M  V30 4 1 1 29
M  V30 5 1 2 3
M  V30 6 1 2 30
M  V30 7 1 2 31
M  V30 8 1 3 4
M  V30 9 1 3 17
M  V30 10 1 4 5
M  V30 11 1 4 32
M  V30 12 1 4 33
M  V30 13 1 5 6
M  V30 14 1 5 34
M  V30 15 1 6 7
M  V30 16 1 6 35
M  V30 17 1 7 8
M  V30 18 2 7 16
M  V30 19 2 8 9
M  V30 20 1 8 15
M  V30 21 1 9 10
M  V30 22 1 9 36
M  V30 23 2 10 11
M  V30 24 1 10 14
M  V30 25 1 11 12
M  V30 26 1 11 15
M  V30 27 2 12 13
M  V30 28 1 12 37
M  V30 29 1 13 14
M  V30 30 1 13 38
M  V30 31 1 14 39
M  V30 32 1 17 18
M  V30 33 2 17 27
M  V30 34 1 18 19
M  V30 35 2 18 26
M  V30 36 2 19 20
M  V30 37 1 19 40
M  V30 38 1 20 21
M  V30 39 1 21 22
M  V30 40 1 21 26
M  V30 41 2 22 23
M  V30 42 1 22 41
M  V30 43 1 23 24
M  V30 44 1 23 42
M  V30 45 2 24 25
M  V30 46 1 25 26
M  V30 47 1 25 43
M  V30 END BOND
M  V30 END CTAB
M  END
> <s_m_entry_id>
67

> <i_f3d_flags>
0

> <r_lp_tautomer_probability>
1

> <r_epik_Ionization_Penalty>
  0.0000

> <r_epik_State_Penalty>
  0.0000

> <i_epik_Tot_Q>
0

> <r_i_docking_score>
-6.06489019562587

> <r_i_glide_gscore>
-6.06489019562587

> <r_i_glide_emodel>
-55.5576372723141

> <s_m_subgroup_title>
nsp13-core1_lib_top-500_pv

> <s_m_subgroupid>
nsp13-core1_lib_top-500_pv

> <b_m_subgroup_collapsed>
0

$$$$
Core_1_EN300-23002434_EN300-23002434
                    3D
 Schrodinger Suite 2023-1.
  0  0  0     0  0            999 V3000
M  V30 BEGIN CTAB
M  V30 COUNTS 50 54 0 0 0
M  V30 BEGIN ATOM
M  V30 1 C  -41.0130 33.4665 1.9744 0
M  V30 2 C  -39.7855 34.3177 1.6437 0
M  V30 3 N  -40.0607 34.9588 0.3607 0
M  V30 4 C  -41.4387 34.6945 -0.0436 0
M  V30 5 C  -42.1525 34.0888 1.1725 0 CFG=1
M  V30 6 N  -43.1440 33.0838 0.8058 0
M  V30 7 C  -44.1232 33.2160 -0.1009 0
M  V30 8 C  -44.9267 31.9535 -0.4079 0
M  V30 9 C  -44.3059 31.1897 -1.5692 0
M  V30 10 C  -43.0201 30.6113 -1.4488 0
M  V30 11 C  -42.5060 29.8441 -2.5118 0
M  V30 12 C  -43.2935 29.6400 -3.6580 0
M  V30 13 C  -43.1810 28.8957 -4.8749 0
M  V30 14 C  -44.3513 29.0875 -5.5542 0
M  V30 15 N  -45.1498 29.9688 -4.8542 0
M  V30 16 C  -44.5484 30.2992 -3.6609 0
M  V30 17 N  -45.0822 31.0720 -2.6743 0
M  V30 18 O  -44.3698 34.2662 -0.6957 0
M  V30 19 C  -39.1565 35.7389 -0.2743 0
M  V30 20 C  -39.5505 36.3717 -1.5743 0
M  V30 21 C  -40.2823 35.8692 -2.6238 0
M  V30 22 N  -40.3506 36.8368 -3.6103 0
M  V30 23 C  -39.6035 37.9440 -3.2642 0
M  V30 24 C  -39.3121 39.1441 -3.9385 0
M  V30 25 C  -38.4735 40.0817 -3.3067 0
M  V30 26 N  -37.9845 39.8173 -2.0747 0 CHG=1
M  V30 27 C  -38.2579 38.6809 -1.3894 0
M  V30 28 C  -39.0815 37.6771 -1.9638 0
M  V30 29 O  -38.0512 35.9707 0.2143 0
M  V30 30 H  -41.2210 33.4201 3.0438 0
M  V30 31 H  -40.8336 32.4433 1.6371 0
M  V30 32 H  -39.6379 35.0875 2.4036 0
M  V30 33 H  -38.8811 33.7068 1.6065 0
M  V30 34 H  -41.4178 33.9731 -0.8596 0
M  V30 35 H  -41.9521 35.5944 -0.3856 0
M  V30 36 H  -42.6228 34.8805 1.7588 0
M  V30 37 H  -43.0937 32.1885 1.3050 0
M  V30 38 H  -45.9578 32.2298 -0.6314 0
M  V30 39 H  -44.9596 31.3063 0.4693 0
M  V30 40 H  -42.4459 30.7203 -0.5395 0
M  V30 41 H  -41.5514 29.3473 -2.4420 0
M  V30 42 H  -42.3514 28.2838 -5.1835 0
M  V30 43 H  -44.6716 28.6837 -6.4919 0
M  V30 44 H  -46.0359 30.3033 -5.2109 0
M  V30 45 H  -40.7682 34.9138 -2.7571 0
M  V30 46 H  -40.8528 36.7237 -4.4932 0
M  V30 47 H  -39.7154 39.3328 -4.9228 0
M  V30 48 H  -38.1809 41.0260 -3.7446 0
M  V30 49 H  -37.7982 38.5878 -0.4156 0
M  V30 50 H  -37.3733 40.5102 -1.6382 0
M  V30 END ATOM
M  V30 BEGIN BOND
M  V30 1 1 1 2
M  V30 2 1 1 5
M  V30 3 1 1 30
M  V30 4 1 1 31
M  V30 5 1 2 3
M  V30 6 1 2 32
M  V30 7 1 2 33
M  V30 8 1 3 4
M  V30 9 1 3 19
M  V30 10 1 4 5
M  V30 11 1 4 34
M  V30 12 1 4 35
M  V30 13 1 5 6
M  V30 14 1 5 36
M  V30 15 1 6 7
M  V30 16 1 6 37
M  V30 17 1 7 8
M  V30 18 2 7 18
M  V30 19 1 8 9
M  V30 20 1 8 38
M  V30 21 1 8 39
M  V30 22 2 9 10
M  V30 23 1 9 17
M  V30 24 1 10 11
M  V30 25 1 10 40
M  V30 26 2 11 12
M  V30 27 1 11 41
M  V30 28 1 12 13
M  V30 29 1 12 16
M  V30 30 2 13 14
M  V30 31 1 13 42
M  V30 32 1 14 15
M  V30 33 1 14 43
M  V30 34 1 15 16
M  V30 35 1 15 44
M  V30 36 2 16 17
M  V30 37 1 19 20
M  V30 38 2 19 29
M  V30 39 2 20 21
M  V30 40 1 20 28
M  V30 41 1 21 22
M  V30 42 1 21 45
M  V30 43 1 22 23
M  V30 44 1 22 46
M  V30 45 2 23 24
M  V30 46 1 23 28
M  V30 47 1 24 25
M  V30 48 1 24 47
M  V30 49 2 25 26
M  V30 50 1 25 48
M  V30 51 1 26 27
M  V30 52 1 26 50
M  V30 53 2 27 28
M  V30 54 1 27 49
M  V30 END BOND
M  V30 END CTAB
M  END
> <s_m_entry_id>
73

> <i_f3d_flags>
0

> <r_lp_tautomer_probability>
0.999998432527508

> <r_epik_Ionization_Penalty>
  0.1298

> <r_epik_State_Penalty>
  0.1284

> <i_epik_Tot_Q>
1

> <r_i_docking_score>
-6.04412390821695

> <r_i_glide_gscore>
-6.17252390821695

> <r_i_glide_emodel>
-60.0695613706549

> <s_m_subgroup_title>
nsp13-core1_lib_top-500_pv

> <s_m_subgroupid>
nsp13-core1_lib_top-500_pv

> <b_m_subgroup_collapsed>
0

$$$$
Core_1_EN300-16967_EN300-16967
                    3D
 Schrodinger Suite 2023-1.
  0  0  0     0  0            999 V3000
M  V30 BEGIN CTAB
M  V30 COUNTS 40 43 0 0 0
M  V30 BEGIN ATOM
M  V30 1 C  -42.0624 37.6258 -1.8497 0
M  V30 2 C  -43.0413 36.6286 -1.2420 0
M  V30 3 N  -42.8355 35.3690 -1.9573 0
M  V30 4 C  -41.6435 35.4376 -2.8028 0
M  V30 5 C  -40.9579 36.7606 -2.4480 0 CFG=1
M  V30 6 N  -40.3489 37.3985 -3.6097 0
M  V30 7 C  -39.3069 38.2377 -3.5243 0
M  V30 8 C  -38.7949 38.7635 -4.8231 0
M  V30 9 C  -39.5668 39.1257 -5.9589 0
M  V30 10 N  -38.7963 39.5818 -6.9315 0
M  V30 11 N  -37.5514 39.5459 -6.4103 0
M  V30 12 C  -37.5046 39.0839 -5.1147 0
M  V30 13 O  -38.7505 38.5340 -2.4670 0
M  V30 14 C  -43.7358 34.3648 -1.9174 0
M  V30 15 C  -43.4487 33.1102 -2.6451 0
M  V30 16 C  -42.3830 32.2355 -2.6204 0
M  V30 17 C  -42.7502 31.1183 -3.4440 0
M  V30 18 C  -42.1880 29.8834 -3.8364 0
M  V30 19 C  -42.8825 29.0150 -4.7058 0
M  V30 20 C  -44.1589 29.3521 -5.1945 0
M  V30 21 C  -44.7489 30.5687 -4.8103 0
M  V30 22 C  -44.0329 31.4199 -3.9532 0
M  V30 23 O  -44.4414 32.6378 -3.4651 0
M  V30 24 O  -44.8034 34.4675 -1.3112 0
M  V30 25 H  -41.6831 38.3433 -1.1210 0
M  V30 26 H  -42.5690 38.1900 -2.6344 0
M  V30 27 H  -42.8192 36.4689 -0.1865 0
M  V30 28 H  -44.0676 36.9922 -1.3204 0
M  V30 29 H  -41.9507 35.4186 -3.8495 0
M  V30 30 H  -40.9652 34.6027 -2.6321 0
M  V30 31 H  -40.2110 36.5560 -1.6770 0
M  V30 32 H  -40.7457 37.2035 -4.5259 0
M  V30 33 H  -40.6345 39.0840 -6.1074 0
M  V30 34 H  -36.7529 39.8875 -6.9451 0
M  V30 35 H  -36.5937 39.0187 -4.5366 0
M  V30 36 H  -41.4721 32.3276 -2.0461 0
M  V30 37 H  -41.2152 29.5897 -3.4692 0
M  V30 38 H  -42.4232 28.0835 -5.0063 0
M  V30 39 H  -44.6720 28.6862 -5.8747 0
M  V30 40 H  -45.7132 30.8538 -5.2097 0
M  V30 END ATOM
M  V30 BEGIN BOND
M  V30 1 1 1 2
M  V30 2 1 1 5
M  V30 3 1 1 25
M  V30 4 1 1 26
M  V30 5 1 2 3
M  V30 6 1 2 27
M  V30 7 1 2 28
M  V30 8 1 3 4
M  V30 9 1 3 14
M  V30 10 1 4 5
M  V30 11 1 4 29
M  V30 12 1 4 30
M  V30 13 1 5 6
M  V30 14 1 5 31
M  V30 15 1 6 7
M  V30 16 1 6 32
M  V30 17 1 7 8
M  V30 18 2 7 13
M  V30 19 1 8 9
M  V30 20 2 8 12
M  V30 21 2 9 10
M  V30 22 1 9 33
M  V30 23 1 10 11
M  V30 24 1 11 12
M  V30 25 1 11 34
M  V30 26 1 12 35
M  V30 27 1 14 15
M  V30 28 2 14 24
M  V30 29 2 15 16
M  V30 30 1 15 23
M  V30 31 1 16 17
M  V30 32 1 16 36
M  V30 33 2 17 18
M  V30 34 1 17 22
M  V30 35 1 18 19
M  V30 36 1 18 37
M  V30 37 2 19 20
M  V30 38 1 19 38
M  V30 39 1 20 21
M  V30 40 1 20 39
M  V30 41 2 21 22
M  V30 42 1 21 40
M  V30 43 1 22 23
M  V30 END BOND
M  V30 END CTAB
M  END
> <s_m_entry_id>
76

> <i_f3d_flags>
0

> <r_lp_tautomer_probability>
1

> <r_epik_Ionization_Penalty>
  0.0000

> <r_epik_State_Penalty>
  0.0000

> <i_epik_Tot_Q>
0

> <r_i_docking_score>
-6.03522480735954

> <r_i_glide_gscore>
-6.03522480735954

> <r_i_glide_emodel>
-54.0005079223714

> <s_m_subgroup_title>
nsp13-core1_lib_top-500_pv

> <s_m_subgroupid>
nsp13-core1_lib_top-500_pv

> <b_m_subgroup_collapsed>
0

$$$$
Core_1_EN300-1720001_EN300-1720001
                    3D
 Schrodinger Suite 2023-1.
  0  0  0     0  0            999 V3000
M  V30 BEGIN CTAB
M  V30 COUNTS 50 53 0 0 0
M  V30 BEGIN ATOM
M  V30 1 C  -35.3316 41.1611 -0.5433 0
M  V30 2 N  -35.7341 39.7658 -0.8100 0 CHG=1 CFG=1
M  V30 3 C  -35.6463 38.8668 0.3784 0
M  V30 4 C  -36.7872 37.9121 0.1766 0
M  V30 5 C  -37.0278 36.6890 0.8223 0
M  V30 6 C  -38.1169 35.9045 0.3825 0
M  V30 7 C  -38.9729 36.3617 -0.6580 0
M  V30 8 C  -38.7183 37.6123 -1.2687 0
M  V30 9 C  -37.6121 38.3601 -0.8386 0
M  V30 10 C  -37.0907 39.6427 -1.4167 0
M  V30 11 C  -40.0388 35.4850 -1.2518 0
M  V30 12 N  -40.9187 34.8411 -0.4506 0
M  V30 13 C  -41.1042 34.9572 0.9970 0
M  V30 14 C  -42.1210 33.8771 1.3783 0
M  V30 15 C  -42.9297 33.6472 0.1076 0 CFG=1
M  V30 16 C  -41.9412 33.9684 -1.0179 0
M  V30 17 N  -43.4325 32.2842 -0.0107 0
M  V30 18 C  -44.2376 31.8748 -1.0019 0
M  V30 19 C  -44.4824 30.3661 -1.1245 0
M  V30 20 C  -44.1516 29.9376 -2.5275 0
M  V30 21 N  -44.8300 30.2837 -3.6228 0
M  V30 22 C  -44.1801 29.6422 -4.6766 0
M  V30 23 C  -43.1364 28.8992 -4.1825 0
M  V30 24 N  -43.1519 29.0921 -2.8105 0
M  V30 25 O  -44.7501 32.6590 -1.8045 0
M  V30 26 O  -40.0902 35.3925 -2.4801 0
M  V30 27 H  -36.0352 41.6527 0.1272 0
M  V30 28 H  -34.3503 41.1975 -0.0766 0
M  V30 29 H  -35.2872 41.7292 -1.4710 0
M  V30 30 H  -35.7974 39.4114 1.3115 0
M  V30 31 H  -34.6883 38.3494 0.4178 0
M  V30 32 H  -36.3631 36.3268 1.5940 0
M  V30 33 H  -38.2487 34.9213 0.8095 0
M  V30 34 H  -39.3246 37.9595 -2.0935 0
M  V30 35 H  -37.0360 39.6074 -2.5060 0
M  V30 36 H  -37.7470 40.4629 -1.1214 0
M  V30 37 H  -41.4967 35.9484 1.2222 0
M  V30 38 H  -40.1946 34.8185 1.5770 0
M  V30 39 H  -42.7436 34.1613 2.2265 0
M  V30 40 H  -41.5896 32.9637 1.6529 0
M  V30 41 H  -43.7543 34.3591 0.0801 0
M  V30 42 H  -41.4484 33.0670 -1.3865 0
M  V30 43 H  -42.4540 34.4317 -1.8615 0
M  V30 44 H  -43.1525 31.6165 0.7079 0
M  V30 45 H  -45.5275 30.1446 -0.9096 0
M  V30 46 H  -43.8708 29.8133 -0.4097 0
M  V30 47 H  -44.5165 29.7595 -5.6978 0
M  V30 48 H  -42.4138 28.2654 -4.6749 0
M  V30 49 H  -42.5494 28.6322 -2.1334 0
M  V30 50 H  -35.0884 39.3828 -1.4931 0
M  V30 END ATOM
M  V30 BEGIN BOND
M  V30 1 1 1 2
M  V30 2 1 1 27
M  V30 3 1 1 28
M  V30 4 1 1 29
M  V30 5 1 2 3
M  V30 6 1 2 10
M  V30 7 1 2 50
M  V30 8 1 3 4
M  V30 9 1 3 30
M  V30 10 1 3 31
M  V30 11 2 4 5
M  V30 12 1 4 9
M  V30 13 1 5 6
M  V30 14 1 5 32
M  V30 15 2 6 7
M  V30 16 1 6 33
M  V30 17 1 7 8
M  V30 18 1 7 11
M  V30 19 2 8 9
M  V30 20 1 8 34
M  V30 21 1 9 10
M  V30 22 1 10 35
M  V30 23 1 10 36
M  V30 24 1 11 12
M  V30 25 2 11 26
M  V30 26 1 12 13
M  V30 27 1 12 16
M  V30 28 1 13 14
M  V30 29 1 13 37
M  V30 30 1 13 38
M  V30 31 1 14 15
M  V30 32 1 14 39
M  V30 33 1 14 40
M  V30 34 1 15 16
M  V30 35 1 15 17
M  V30 36 1 15 41
M  V30 37 1 16 42
M  V30 38 1 16 43
M  V30 39 1 17 18
M  V30 40 1 17 44
M  V30 41 1 18 19
M  V30 42 2 18 25
M  V30 43 1 19 20
M  V30 44 1 19 45
M  V30 45 1 19 46
M  V30 46 2 20 21
M  V30 47 1 20 24
M  V30 48 1 21 22
M  V30 49 2 22 23
M  V30 50 1 22 47
M  V30 51 1 23 24
M  V30 52 1 23 48
M  V30 53 1 24 49
M  V30 END BOND
M  V30 END CTAB
M  END
> <s_m_entry_id>
88

> <i_f3d_flags>
0

> <r_lp_tautomer_probability>
0.499999999999999

> <r_epik_Ionization_Penalty>
  0.1168

> <r_epik_State_Penalty>
  0.1168

> <i_epik_Tot_Q>
1

> <r_i_docking_score>
-5.99431817797008

> <r_i_glide_gscore>
-6.11111817797008

> <r_i_glide_emodel>
-53.2624104621063

> <s_m_subgroup_title>
nsp13-core1_lib_top-500_pv

> <s_m_subgroupid>
nsp13-core1_lib_top-500_pv

> <b_m_subgroup_collapsed>
0

$$$$
Core_1_EN300-6745638_EN300-6745638
                    3D
 Schrodinger Suite 2023-1.
  0  0  0     0  0            999 V3000
M  V30 BEGIN CTAB
M  V30 COUNTS 39 42 0 0 0
M  V30 BEGIN ATOM
M  V30 1 C  -40.3463 36.2988 -1.2369 0
M  V30 2 C  -41.0223 35.0514 -0.6739 0
M  V30 3 N  -41.6130 34.3709 -1.8216 0
M  V30 4 C  -41.1103 34.9341 -3.0730 0
M  V30 5 C  -40.0004 35.9190 -2.6783 0 CFG=1
M  V30 6 N  -39.9511 37.0421 -3.6101 0
M  V30 7 C  -39.1968 38.1465 -3.4844 0
M  V30 8 C  -39.0373 38.9677 -4.7039 0
M  V30 9 C  -38.3206 40.1262 -4.7852 0
M  V30 10 C  -38.4654 40.4679 -6.1571 0
M  V30 11 N  -39.1828 39.6057 -6.8632 0
M  V30 12 N  -39.5503 38.6841 -5.9486 0
M  V30 13 O  -37.9514 41.5482 -6.8054 0
M  V30 14 O  -38.6229 38.4601 -2.4432 0
M  V30 15 C  -42.4669 33.3328 -1.6894 0
M  V30 16 C  -43.1292 32.8055 -2.9312 0
M  V30 17 C  -43.1369 31.4326 -3.2596 0
M  V30 18 C  -42.5412 30.2993 -2.6705 0
M  V30 19 C  -42.7515 29.0586 -3.3070 0
M  V30 20 N  -43.5082 28.8910 -4.4218 0
M  V30 21 C  -44.0861 29.9768 -4.9835 0
M  V30 22 C  -43.9024 31.2464 -4.4104 0
M  V30 23 O  -44.3512 32.5079 -4.7600 0
M  V30 24 N  -43.8685 33.4685 -3.8247 0
M  V30 25 O  -42.7173 32.8172 -0.6016 0
M  V30 26 H  -39.4732 36.5965 -0.6554 0
M  V30 27 H  -41.0549 37.1299 -1.2261 0
M  V30 28 H  -40.2839 34.3926 -0.2110 0
M  V30 29 H  -41.7664 35.3119 0.0809 0
M  V30 30 H  -41.9283 35.4536 -3.5771 0
M  V30 31 H  -40.7312 34.1606 -3.7437 0
M  V30 32 H  -39.0397 35.3985 -2.6904 0
M  V30 33 H  -40.4465 36.9192 -4.4857 0
M  V30 34 H  -37.7851 40.6353 -3.9977 0
M  V30 35 H  -37.3323 41.2770 -7.4710 0
M  V30 36 H  -40.1873 37.9221 -6.1685 0
M  V30 37 H  -41.9516 30.3678 -1.7681 0
M  V30 38 H  -42.3029 28.1653 -2.9063 0
M  V30 39 H  -44.6781 29.8322 -5.8761 0
M  V30 END ATOM
M  V30 BEGIN BOND
M  V30 1 1 1 2
M  V30 2 1 1 5
M  V30 3 1 1 26
M  V30 4 1 1 27
M  V30 5 1 2 3
M  V30 6 1 2 28
M  V30 7 1 2 29
M  V30 8 1 3 4
M  V30 9 1 3 15
M  V30 10 1 4 5
M  V30 11 1 4 30
M  V30 12 1 4 31
M  V30 13 1 5 6
M  V30 14 1 5 32
M  V30 15 1 6 7
M  V30 16 1 6 33
M  V30 17 2 7 14
M  V30 18 1 7 8
M  V30 19 2 8 9
M  V30 20 1 8 12
M  V30 21 1 9 34
M  V30 22 1 9 10
M  V30 23 2 10 11
M  V30 24 1 10 13
M  V30 25 1 11 12
M  V30 26 1 12 36
M  V30 27 1 13 35
M  V30 28 1 15 16
M  V30 29 2 15 25
M  V30 30 1 16 17
M  V30 31 2 16 24
M  V30 32 2 17 18
M  V30 33 1 17 22
M  V30 34 1 18 19
M  V30 35 1 18 37
M  V30 36 2 19 20
M  V30 37 1 19 38
M  V30 38 1 20 21
M  V30 39 2 21 22
M  V30 40 1 21 39
M  V30 41 1 22 23
M  V30 42 1 23 24
M  V30 END BOND
M  V30 END CTAB
M  END
> <s_m_entry_id>
95

> <i_f3d_flags>
0

> <r_lp_tautomer_probability>
0.966084542645576

> <r_epik_Ionization_Penalty>
  0.2487

> <r_epik_State_Penalty>
  0.3588

> <i_epik_Tot_Q>
0

> <r_i_docking_score>
-5.97231079121103

> <r_i_glide_gscore>
-6.33111079121103

> <r_i_glide_emodel>
-57.0042423515977

> <s_m_subgroup_title>
nsp13-core1_lib_top-500_pv

> <s_m_subgroupid>
nsp13-core1_lib_top-500_pv

> <b_m_subgroup_collapsed>
0

$$$$
Core_1_EN300-1699119_EN300-1699119
                    3D
 Schrodinger Suite 2023-1.
  0  0  0     0  0            999 V3000
M  V30 BEGIN CTAB
M  V30 COUNTS 46 50 0 0 0
M  V30 BEGIN ATOM
M  V30 1 C  -40.1611 35.9593 -1.0505 0
M  V30 2 C  -39.4715 37.2629 -1.4724 0
M  V30 3 N  -39.6365 37.3514 -2.9237 0
M  V30 4 C  -40.5965 36.3514 -3.3772 0
M  V30 5 C  -41.2349 35.7642 -2.1147 0 CFG=1
M  V30 6 N  -41.6273 34.3707 -2.3020 0
M  V30 7 C  -42.6758 33.9988 -3.0566 0
M  V30 8 C  -42.8485 32.5580 -3.2852 0
M  V30 9 C  -42.3682 31.4653 -2.5614 0
M  V30 10 C  -42.8641 30.4273 -3.2862 0
M  V30 11 C  -43.5677 30.8478 -4.3032 0
M  V30 12 C  -44.0549 29.7538 -5.0526 0
M  V30 13 C  -43.5476 28.6544 -4.3689 0
M  V30 14 N  -42.8103 29.0697 -3.2411 0
M  V30 15 O  -43.6339 32.1882 -4.3846 0
M  V30 16 O  -43.4262 34.8021 -3.6102 0
M  V30 17 C  -39.0162 38.2684 -3.6949 0
M  V30 18 C  -38.9910 38.0815 -5.2251 0
M  V30 19 N  -39.4529 39.2609 -5.9389 0
M  V30 20 C  -40.6990 39.8839 -5.9022 0
M  V30 21 C  -40.5957 40.9815 -6.7403 0
M  V30 22 C  -39.3059 40.9552 -7.2391 0
M  V30 23 C  -38.8570 41.9797 -8.0911 0
M  V30 24 C  -39.7797 43.0053 -8.3979 0
M  V30 25 C  -41.0842 42.9314 -7.8542 0
M  V30 26 N  -41.5033 41.9342 -7.0389 0
M  V30 27 N  -38.5902 39.9032 -6.8064 0
M  V30 28 O  -38.3879 39.2050 -3.2064 0
M  V30 29 H  -39.4436 35.1367 -1.0843 0
M  V30 30 H  -40.5693 36.0063 -0.0411 0
M  V30 31 H  -38.4182 37.2669 -1.1865 0
M  V30 32 H  -39.9552 38.1243 -1.0074 0
M  V30 33 H  -41.3672 36.7899 -4.0093 0
M  V30 34 H  -40.0694 35.5828 -3.9458 0
M  V30 35 H  -42.1055 36.3608 -1.8432 0
M  V30 36 H  -41.0513 33.6540 -1.8867 0
M  V30 37 H  -41.7564 31.4435 -1.6707 0
M  V30 38 H  -44.6583 29.7522 -5.9494 0
M  V30 39 H  -43.6523 27.5995 -4.5823 0
M  V30 40 H  -42.3513 28.4890 -2.5457 0
M  V30 41 H  -39.5501 37.2178 -5.5674 0
M  V30 42 H  -37.9575 37.8880 -5.5130 0
M  V30 43 H  -41.4928 39.4885 -5.2852 0
M  V30 44 H  -37.8513 41.9904 -8.4853 0
M  V30 45 H  -39.4972 43.8277 -9.0377 0
M  V30 46 H  -41.8114 43.6954 -8.0829 0
M  V30 END ATOM
M  V30 BEGIN BOND
M  V30 1 1 1 2
M  V30 2 1 1 5
M  V30 3 1 1 29
M  V30 4 1 1 30
M  V30 5 1 2 3
M  V30 6 1 2 31
M  V30 7 1 2 32
M  V30 8 1 3 4
M  V30 9 1 3 17
M  V30 10 1 4 5
M  V30 11 1 4 33
M  V30 12 1 4 34
M  V30 13 1 5 6
M  V30 14 1 5 35
M  V30 15 1 6 7
M  V30 16 1 6 36
M  V30 17 1 7 8
M  V30 18 2 7 16
M  V30 19 2 8 9
M  V30 20 1 8 15
M  V30 21 1 9 10
M  V30 22 1 9 37
M  V30 23 2 10 11
M  V30 24 1 10 14
M  V30 25 1 11 12
M  V30 26 1 11 15
M  V30 27 2 12 13
M  V30 28 1 12 38
M  V30 29 1 13 14
M  V30 30 1 13 39
M  V30 31 1 14 40
M  V30 32 1 17 18
M  V30 33 2 17 28
M  V30 34 1 18 19
M  V30 35 1 18 41
M  V30 36 1 18 42
M  V30 37 1 19 20
M  V30 38 1 19 27
M  V30 39 2 20 21
M  V30 40 1 20 43
M  V30 41 1 21 22
M  V30 42 1 21 26
M  V30 43 1 22 23
M  V30 44 2 22 27
M  V30 45 2 23 24
M  V30 46 1 23 44
M  V30 47 1 24 25
M  V30 48 1 24 45
M  V30 49 2 25 26
M  V30 50 1 25 46
M  V30 END BOND
M  V30 END CTAB
M  END
> <s_m_entry_id>
99

> <i_f3d_flags>
0

> <r_lp_tautomer_probability>
1

> <r_epik_Ionization_Penalty>
  0.0000

> <r_epik_State_Penalty>
  0.0000

> <i_epik_Tot_Q>
0

> <r_i_docking_score>
-5.96805743543592

> <r_i_glide_gscore>
-5.96805743543592

> <r_i_glide_emodel>
-56.1091183410447

> <s_m_subgroup_title>
nsp13-core1_lib_top-500_pv

> <s_m_subgroupid>
nsp13-core1_lib_top-500_pv

> <b_m_subgroup_collapsed>
0

$$$$
Core_1_EN300-27734635_EN300-27734635
                    3D
 Schrodinger Suite 2023-1.
  0  0  0     0  0            999 V3000
M  V30 BEGIN CTAB
M  V30 COUNTS 44 48 0 0 0
M  V30 BEGIN ATOM
M  V30 1 C  -42.0221 35.5215 0.6607 0
M  V30 2 C  -40.5049 35.6123 0.5353 0
M  V30 3 N  -40.2457 36.3960 -0.6735 0
M  V30 4 C  -41.4566 36.4537 -1.4994 0
M  V30 5 C  -42.5333 35.6329 -0.7701 0 CFG=1
M  V30 6 N  -42.7067 34.3012 -1.3460 0
M  V30 7 C  -43.1869 34.0074 -2.5608 0
M  V30 8 C  -43.2545 32.5716 -2.8819 0
M  V30 9 C  -42.6515 31.4899 -2.2343 0
M  V30 10 C  -43.0397 30.4528 -3.0196 0
M  V30 11 C  -43.7882 30.8650 -4.0103 0
M  V30 12 C  -44.1692 29.7697 -4.8156 0
M  V30 13 C  -43.5482 28.6853 -4.2010 0
M  V30 14 N  -42.8500 29.1046 -3.0522 0
M  V30 15 O  -43.9875 32.1947 -4.0131 0
M  V30 16 O  -43.5634 34.8524 -3.3719 0
M  V30 17 C  -39.0573 37.0146 -0.8838 0
M  V30 18 C  -38.8796 37.9200 -2.0765 0
M  V30 19 C  -38.2689 39.1839 -1.8938 0
M  V30 20 C  -37.9861 40.0255 -2.9911 0
M  V30 21 C  -38.3151 39.6332 -4.3075 0
M  V30 22 C  -38.1929 40.1663 -5.6336 0
M  V30 23 N  -38.7061 39.3591 -6.5327 0
M  V30 24 N  -39.1511 38.2827 -5.8358 0
M  V30 25 C  -38.9340 38.3673 -4.4734 0
M  V30 26 C  -39.1912 37.5064 -3.3928 0
M  V30 27 O  -38.1227 36.9074 -0.0886 0
M  V30 28 H  -42.3834 36.3760 1.2332 0
M  V30 29 H  -42.3515 34.6230 1.1817 0
M  V30 30 H  -40.0702 36.0590 1.4315 0
M  V30 31 H  -40.0698 34.6185 0.4075 0
M  V30 32 H  -41.2979 36.0696 -2.5019 0
M  V30 33 H  -41.7689 37.4933 -1.5906 0
M  V30 34 H  -43.4974 36.1435 -0.7940 0
M  V30 35 H  -42.4457 33.5235 -0.7568 0
M  V30 36 H  -42.0264 31.4724 -1.3525 0
M  V30 37 H  -44.7733 29.7597 -5.7104 0
M  V30 38 H  -43.5506 27.6406 -4.4717 0
M  V30 39 H  -42.3516 28.5290 -2.3776 0
M  V30 40 H  -37.9867 39.5044 -0.9008 0
M  V30 41 H  -37.5064 40.9778 -2.8237 0
M  V30 42 H  -37.7613 41.1057 -5.9471 0
M  V30 43 H  -39.6769 37.5464 -6.2940 0
M  V30 44 H  -39.5821 36.5246 -3.6011 0
M  V30 END ATOM
M  V30 BEGIN BOND
M  V30 1 1 1 2
M  V30 2 1 1 5
M  V30 3 1 1 28
M  V30 4 1 1 29
M  V30 5 1 2 3
M  V30 6 1 2 30
M  V30 7 1 2 31
M  V30 8 1 3 4
M  V30 9 1 3 17
M  V30 10 1 4 5
M  V30 11 1 4 32
M  V30 12 1 4 33
M  V30 13 1 5 6
M  V30 14 1 5 34
M  V30 15 1 6 7
M  V30 16 1 6 35
M  V30 17 1 7 8
M  V30 18 2 7 16
M  V30 19 2 8 9
M  V30 20 1 8 15
M  V30 21 1 9 10
M  V30 22 1 9 36
M  V30 23 2 10 11
M  V30 24 1 10 14
M  V30 25 1 11 12
M  V30 26 1 11 15
M  V30 27 2 12 13
M  V30 28 1 12 37
M  V30 29 1 13 14
M  V30 30 1 13 38
M  V30 31 1 14 39
M  V30 32 1 17 18
M  V30 33 2 17 27
M  V30 34 2 18 19
M  V30 35 1 18 26
M  V30 36 1 19 20
M  V30 37 1 19 40
M  V30 38 2 20 21
M  V30 39 1 20 41
M  V30 40 1 21 22
M  V30 41 1 21 25
M  V30 42 2 22 23
M  V30 43 1 22 42
M  V30 44 1 23 24
M  V30 45 1 24 25
M  V30 46 1 24 43
M  V30 47 2 25 26
M  V30 48 1 26 44
M  V30 END BOND
M  V30 END CTAB
M  END
> <s_m_entry_id>
100

> <i_f3d_flags>
0

> <r_lp_tautomer_probability>
0.980392156862745

> <r_epik_Ionization_Penalty>
  0.0000

> <r_epik_State_Penalty>
  0.0117

> <i_epik_Tot_Q>
0

> <r_i_docking_score>
-5.96606449574362

> <r_i_glide_gscore>
-5.97776449574362

> <r_i_glide_emodel>
-53.3751824065373

> <s_m_subgroup_title>
nsp13-core1_lib_top-500_pv

> <s_m_subgroupid>
nsp13-core1_lib_top-500_pv

> <b_m_subgroup_collapsed>
0

$$$$
Core_1_EN300-98110_EN300-98110
                    3D
 Schrodinger Suite 2023-1.
  0  0  0     0  0            999 V3000
M  V30 BEGIN CTAB
M  V30 COUNTS 40 43 0 0 0
M  V30 BEGIN ATOM
M  V30 1 C  -39.9300 35.8452 -0.9845 0
M  V30 2 C  -39.2643 37.2037 -1.1800 0
M  V30 3 N  -39.5844 37.6236 -2.5423 0
M  V30 4 C  -40.5658 36.7130 -3.1415 0
M  V30 5 C  -41.0768 35.8260 -1.9909 0 CFG=1
M  V30 6 N  -41.4275 34.4608 -2.3868 0
M  V30 7 C  -42.5138 34.1163 -3.1015 0
M  V30 8 C  -42.7369 32.6697 -3.3131 0
M  V30 9 C  -42.2745 31.5726 -2.5824 0
M  V30 10 C  -42.8053 30.5301 -3.2751 0
M  V30 11 C  -43.5323 30.9521 -4.2774 0
M  V30 12 C  -44.0576 29.8485 -4.9928 0
M  V30 13 C  -43.5473 28.7464 -4.3100 0
M  V30 14 N  -42.7724 29.1678 -3.2100 0
M  V30 15 O  -43.5627 32.2942 -4.3818 0
M  V30 16 O  -43.2757 34.9411 -3.6054 0
M  V30 17 C  -38.9584 38.6694 -3.1281 0
M  V30 18 C  -39.3699 39.0825 -4.5059 0
M  V30 19 C  -40.6614 39.5846 -4.7704 0
M  V30 20 C  -40.9613 40.0247 -6.0734 0
M  V30 21 C  -39.9587 39.9435 -7.0567 0
M  V30 22 N  -38.7137 39.4805 -6.8099 0
M  V30 23 C  -38.4298 39.0731 -5.5555 0
M  V30 24 F  -42.1889 40.5141 -6.3758 0
M  V30 25 O  -38.0483 39.2886 -2.5776 0
M  V30 26 H  -40.2577 35.6806 0.0429 0
M  V30 27 H  -39.1945 35.0804 -1.2284 0
M  V30 28 H  -39.6661 37.9358 -0.4772 0
M  V30 29 H  -38.1876 37.1358 -1.0132 0
M  V30 30 H  -40.0762 36.1162 -3.9116 0
M  V30 31 H  -41.3928 37.2455 -3.6088 0
M  V30 32 H  -41.9427 36.3078 -1.5326 0
M  V30 33 H  -40.8463 33.7171 -2.0272 0
M  V30 34 H  -41.6396 31.5488 -1.7101 0
M  V30 35 H  -44.6846 29.8442 -5.8723 0
M  V30 36 H  -43.6698 27.6914 -4.5031 0
M  V30 37 H  -42.3058 28.5875 -2.5225 0
M  V30 38 H  -41.4084 39.6397 -3.9921 0
M  V30 39 H  -40.1575 40.2631 -8.0690 0
M  V30 40 H  -37.4202 38.7254 -5.3913 0
M  V30 END ATOM
M  V30 BEGIN BOND
M  V30 1 1 1 2
M  V30 2 1 1 5
M  V30 3 1 1 26
M  V30 4 1 1 27
M  V30 5 1 2 3
M  V30 6 1 2 28
M  V30 7 1 2 29
M  V30 8 1 3 4
M  V30 9 1 3 17
M  V30 10 1 4 5
M  V30 11 1 4 30
M  V30 12 1 4 31
M  V30 13 1 5 6
M  V30 14 1 5 32
M  V30 15 1 6 7
M  V30 16 1 6 33
M  V30 17 1 7 8
M  V30 18 2 7 16
M  V30 19 2 8 9
M  V30 20 1 8 15
M  V30 21 1 9 10
M  V30 22 1 9 34
M  V30 23 2 10 11
M  V30 24 1 10 14
M  V30 25 1 11 12
M  V30 26 1 11 15
M  V30 27 2 12 13
M  V30 28 1 12 35
M  V30 29 1 13 14
M  V30 30 1 13 36
M  V30 31 1 14 37
M  V30 32 1 17 18
M  V30 33 2 17 25
M  V30 34 2 18 19
M  V30 35 1 18 23
M  V30 36 1 19 20
M  V30 37 1 19 38
M  V30 38 2 20 21
M  V30 39 1 20 24
M  V30 40 1 21 22
M  V30 41 1 21 39
M  V30 42 2 22 23
M  V30 43 1 23 40
M  V30 END BOND
M  V30 END CTAB
M  END
> <s_m_entry_id>
101

> <i_f3d_flags>
0

> <r_lp_tautomer_probability>
1

> <r_epik_Ionization_Penalty>
  0.0000

> <r_epik_State_Penalty>
  0.0000

> <i_epik_Tot_Q>
0

> <r_i_docking_score>
-5.96355953809904

> <r_i_glide_gscore>
-5.96355953809904

> <r_i_glide_emodel>
-53.761292667035

> <s_m_subgroup_title>
nsp13-core1_lib_top-500_pv

> <s_m_subgroupid>
nsp13-core1_lib_top-500_pv

> <b_m_subgroup_collapsed>
0

$$$$
Core_1_EN300-746125_EN300-746125
                    3D
 Schrodinger Suite 2023-1.
  0  0  0     0  0            999 V3000
M  V30 BEGIN CTAB
M  V30 COUNTS 46 49 0 0 0
M  V30 BEGIN ATOM
M  V30 1 C  -43.3252 28.2806 -5.4580 0
M  V30 2 C  -43.5713 29.3558 -4.4592 0
M  V30 3 N  -44.7489 29.9875 -4.3722 0
M  V30 4 N  -44.7513 30.9559 -3.3806 0
M  V30 5 C  -43.5714 31.0474 -2.7637 0
M  V30 6 O  -43.3100 31.9470 -1.7888 0
M  V30 7 C  -41.9794 32.4535 -1.6525 0
M  V30 8 C  -41.6244 33.4128 -2.8082 0
M  V30 9 N  -40.9576 34.5549 -2.5511 0
M  V30 10 C  -40.9893 35.3346 -1.3173 0
M  V30 11 C  -40.6559 36.7707 -1.7419 0
M  V30 12 C  -39.7894 36.6013 -2.9875 0 CFG=1
M  V30 13 C  -40.2747 35.2925 -3.6048 0
M  V30 14 N  -39.9313 37.6660 -3.9714 0
M  V30 15 C  -39.1323 38.7345 -4.0860 0
M  V30 16 C  -39.2135 39.4575 -5.3736 0
M  V30 17 C  -38.5612 40.6037 -5.7114 0
M  V30 18 C  -37.6240 41.6381 -5.2014 0
M  V30 19 C  -37.5771 42.6510 -6.3947 0
M  V30 20 C  -38.4158 42.0920 -7.5921 0
M  V30 21 C  -38.9795 40.8472 -7.0153 0
M  V30 22 N  -39.8159 39.9546 -7.5243 0
M  V30 23 N  -39.9513 39.0858 -6.4856 0
M  V30 24 O  -38.3493 39.0844 -3.2045 0
M  V30 25 O  -41.8830 33.0837 -3.9659 0
M  V30 26 S  -42.3547 29.8822 -3.2972 0
M  V30 27 H  -43.9584 28.4266 -6.3328 0
M  V30 28 H  -43.5549 27.3106 -5.0177 0
M  V30 29 H  -42.2834 28.2856 -5.7785 0
M  V30 30 H  -41.9355 32.9671 -0.6936 0
M  V30 31 H  -41.2346 31.6607 -1.5837 0
M  V30 32 H  -41.9585 35.2904 -0.8176 0
M  V30 33 H  -40.2327 34.9463 -0.6335 0
M  V30 34 H  -41.5796 37.2941 -1.9945 0
M  V30 35 H  -40.1550 37.3390 -0.9578 0
M  V30 36 H  -38.7505 36.4815 -2.6824 0
M  V30 37 H  -39.4420 34.7157 -4.0103 0
M  V30 38 H  -40.9832 35.4811 -4.4100 0
M  V30 39 H  -40.5930 37.4848 -4.7189 0
M  V30 40 H  -37.9846 42.1122 -4.2880 0
M  V30 41 H  -36.6379 41.2225 -4.9957 0
M  V30 42 H  -36.5498 42.8566 -6.6956 0
M  V30 43 H  -37.9999 43.6036 -6.0730 0
M  V30 44 H  -37.7913 41.8830 -8.4601 0
M  V30 45 H  -39.2020 42.7849 -7.8920 0
M  V30 46 H  -40.5865 38.2920 -6.5199 0
M  V30 END ATOM
M  V30 BEGIN BOND
M  V30 1 1 1 2
M  V30 2 1 1 27
M  V30 3 1 1 28
M  V30 4 1 1 29
M  V30 5 2 2 3
M  V30 6 1 2 26
M  V30 7 1 3 4
M  V30 8 2 4 5
M  V30 9 1 5 6
M  V30 10 1 5 26
M  V30 11 1 6 7
M  V30 12 1 7 8
M  V30 13 1 7 30
M  V30 14 1 7 31
M  V30 15 1 8 9
M  V30 16 2 8 25
M  V30 17 1 9 10
M  V30 18 1 9 13
M  V30 19 1 10 11
M  V30 20 1 10 32
M  V30 21 1 10 33
M  V30 22 1 11 12
M  V30 23 1 11 34
M  V30 24 1 11 35
M  V30 25 1 12 13
M  V30 26 1 12 14
M  V30 27 1 12 36
M  V30 28 1 13 37
M  V30 29 1 13 38
M  V30 30 1 14 15
M  V30 31 1 14 39
M  V30 32 2 15 24
M  V30 33 1 15 16
M  V30 34 1 16 23
M  V30 35 2 16 17
M  V30 36 1 17 21
M  V30 37 1 17 18
M  V30 38 1 18 19
M  V30 39 1 18 40
M  V30 40 1 18 41
M  V30 41 1 19 20
M  V30 42 1 19 42
M  V30 43 1 19 43
M  V30 44 1 20 44
M  V30 45 1 20 45
M  V30 46 1 20 21
M  V30 47 2 21 22
M  V30 48 1 22 23
M  V30 49 1 23 46
M  V30 END BOND
M  V30 END CTAB
M  END
> <s_m_entry_id>
103

> <i_f3d_flags>
0

> <r_lp_tautomer_probability>
0.5

> <r_epik_Ionization_Penalty>
  0.0000

> <r_epik_State_Penalty>
  0.4107

> <i_epik_Tot_Q>
0

> <r_i_docking_score>
-5.96194452284093

> <r_i_glide_gscore>
-6.37264452284093

> <r_i_glide_emodel>
-62.682605519647

> <s_m_subgroup_title>
nsp13-core1_lib_top-500_pv

> <s_m_subgroupid>
nsp13-core1_lib_top-500_pv

> <b_m_subgroup_collapsed>
0

$$$$
Core_1_EN300-39914218_EN300-39914218
                    3D
 Schrodinger Suite 2023-1.
  0  0  0     0  0            999 V3000
M  V30 BEGIN CTAB
M  V30 COUNTS 40 42 0 0 0
M  V30 BEGIN ATOM
M  V30 1 C  -40.6087 35.6495 -0.7384 0
M  V30 2 C  -39.9759 37.0365 -0.8681 0
M  V30 3 N  -40.0991 37.4018 -2.2768 0
M  V30 4 C  -40.9618 36.4577 -2.9813 0
M  V30 5 C  -41.6013 35.5811 -1.8939 0 CFG=1
M  V30 6 N  -41.8259 34.2115 -2.3453 0
M  V30 7 C  -42.8515 33.8346 -3.1233 0
M  V30 8 C  -42.9574 32.3951 -3.4029 0
M  V30 9 C  -42.3955 31.3183 -2.7178 0
M  V30 10 C  -42.8663 30.2668 -3.4355 0
M  V30 11 C  -43.6381 30.6645 -4.4128 0
M  V30 12 C  -44.1144 29.5498 -5.1427 0
M  V30 13 C  -43.5402 28.4685 -4.4827 0
M  V30 14 N  -42.7586 28.9114 -3.3947 0
M  V30 15 O  -43.7711 32.0022 -4.4724 0
M  V30 16 O  -43.6558 34.6252 -3.6100 0
M  V30 17 C  -39.4943 38.4733 -2.8280 0
M  V30 18 C  -39.7026 38.7342 -4.3232 0
M  V30 19 O  -39.0665 39.9467 -4.6969 0
M  V30 20 S  -38.8754 40.1474 -6.3555 0
M  V30 21 N  -38.0860 41.6337 -6.6426 0
M  V30 22 O  -40.2201 40.2665 -6.9400 0
M  V30 23 O  -37.9681 39.0833 -6.8091 0
M  V30 24 O  -38.7818 39.2295 -2.1673 0
M  V30 25 H  -39.8302 34.8957 -0.8577 0
M  V30 26 H  -41.0763 35.4835 0.2315 0
M  V30 27 H  -38.9391 37.0394 -0.5253 0
M  V30 28 H  -40.5264 37.7602 -0.2628 0
M  V30 29 H  -41.7319 36.9532 -3.5741 0
M  V30 30 H  -40.3405 35.8647 -3.6563 0
M  V30 31 H  -42.5390 36.0386 -1.5683 0
M  V30 32 H  -41.1943 33.4962 -2.0140 0
M  V30 33 H  -41.7581 31.3180 -1.8455 0
M  V30 34 H  -44.7579 29.5213 -6.0094 0
M  V30 35 H  -43.6230 27.4120 -4.6863 0
M  V30 36 H  -42.2519 28.3505 -2.7167 0
M  V30 37 H  -40.7664 38.8215 -4.5492 0
M  V30 38 H  -39.3010 37.8954 -4.8959 0
M  V30 39 H  -37.1849 41.4707 -7.0965 0
M  V30 40 H  -38.6729 42.2779 -7.1714 0
M  V30 END ATOM
M  V30 BEGIN BOND
M  V30 1 1 1 2
M  V30 2 1 1 5
M  V30 3 1 1 25
M  V30 4 1 1 26
M  V30 5 1 2 3
M  V30 6 1 2 27
M  V30 7 1 2 28
M  V30 8 1 3 4
M  V30 9 1 3 17
M  V30 10 1 4 5
M  V30 11 1 4 29
M  V30 12 1 4 30
M  V30 13 1 5 6
M  V30 14 1 5 31
M  V30 15 1 6 7
M  V30 16 1 6 32
M  V30 17 1 7 8
M  V30 18 2 7 16
M  V30 19 2 8 9
M  V30 20 1 8 15
M  V30 21 1 9 10
M  V30 22 1 9 33
M  V30 23 2 10 11
M  V30 24 1 10 14
M  V30 25 1 11 12
M  V30 26 1 11 15
M  V30 27 2 12 13
M  V30 28 1 12 34
M  V30 29 1 13 14
M  V30 30 1 13 35
M  V30 31 1 14 36
M  V30 32 1 17 18
M  V30 33 2 17 24
M  V30 34 1 18 19
M  V30 35 1 18 37
M  V30 36 1 18 38
M  V30 37 1 19 20
M  V30 38 1 20 21
M  V30 39 2 20 22
M  V30 40 2 20 23
M  V30 41 1 21 39
M  V30 42 1 21 40
M  V30 END BOND
M  V30 END CTAB
M  END
> <s_m_entry_id>
106

> <i_f3d_flags>
0

> <r_epik_Ionization_Penalty>
  0.0237

> <r_epik_State_Penalty>
  0.0237

> <i_epik_Tot_Q>
0

> <r_i_docking_score>
-5.9595784357241

> <r_i_glide_gscore>
-5.9832784357241

> <r_i_glide_emodel>
-56.3511437081372

> <s_m_subgroup_title>
nsp13-core1_lib_top-500_pv

> <s_m_subgroupid>
nsp13-core1_lib_top-500_pv

> <b_m_subgroup_collapsed>
0

$$$$
Core_1_EN300-110297_EN300-110297
                    3D
 Schrodinger Suite 2023-1.
  0  0  0     0  0            999 V3000
M  V30 BEGIN CTAB
M  V30 COUNTS 48 51 0 0 0
M  V30 BEGIN ATOM
M  V30 1 C  -39.5377 37.8572 -3.4438 0
M  V30 2 C  -40.0513 36.6060 -2.7649 0
M  V30 3 N  -40.7880 35.7755 -3.6103 0
M  V30 4 C  -41.3221 34.6000 -3.2103 0
M  V30 5 C  -41.1004 34.2838 -1.8012 0
M  V30 6 C  -40.4114 35.1489 -1.0059 0
M  V30 7 C  -40.1880 34.8162 0.3960 0
M  V30 8 N  -41.3112 34.6120 1.1247 0
M  V30 9 C  -41.3035 33.9161 2.4105 0
M  V30 10 C  -42.7332 33.9924 2.9521 0
M  V30 11 C  -43.6038 34.3108 1.7389 0 CFG=1
M  V30 12 C  -42.6653 35.0782 0.8058 0
M  V30 13 N  -44.1000 33.0838 1.1226 0
M  V30 14 C  -44.9059 32.9850 0.0518 0
M  V30 15 C  -45.3291 31.5731 -0.3604 0
M  V30 16 C  -44.5063 31.0182 -1.5168 0
M  V30 17 C  -43.1933 30.5522 -1.2952 0
M  V30 18 C  -42.5196 29.8838 -2.3369 0
M  V30 19 C  -43.1624 29.6801 -3.5727 0
M  V30 20 C  -42.8687 29.0178 -4.8103 0
M  V30 21 C  -43.9941 29.1087 -5.5858 0
M  V30 22 N  -44.9285 29.8854 -4.9240 0
M  V30 23 C  -44.4627 30.2288 -3.6718 0
M  V30 24 N  -45.1514 30.8954 -2.7035 0
M  V30 25 O  -45.3264 33.9580 -0.5747 0
M  V30 26 O  -39.0639 34.6836 0.8807 0
M  V30 27 N  -39.8476 36.3255 -1.5188 0
M  V30 28 O  -41.9513 33.8838 -3.9877 0
M  V30 29 H  -38.4490 37.8838 -3.4133 0
M  V30 30 H  -39.8523 37.9090 -4.4868 0
M  V30 31 H  -39.9156 38.7418 -2.9309 0
M  V30 32 H  -40.9444 36.0731 -4.5672 0
M  V30 33 H  -41.5012 33.3608 -1.4040 0
M  V30 34 H  -40.5888 34.3550 3.1084 0
M  V30 35 H  -41.0186 32.8745 2.2477 0
M  V30 36 H  -42.8004 34.8137 3.6666 0
M  V30 37 H  -43.0329 33.0828 3.4748 0
M  V30 38 H  -44.4629 34.9205 2.0234 0
M  V30 39 H  -42.9614 34.9877 -0.2359 0
M  V30 40 H  -42.7074 36.1419 1.0435 0
M  V30 41 H  -43.8025 32.2072 1.5656 0
M  V30 42 H  -46.3875 31.5888 -0.6245 0
M  V30 43 H  -45.2370 30.8969 0.4913 0
M  V30 44 H  -42.7333 30.6496 -0.3202 0
M  V30 45 H  -41.5514 29.4493 -2.1709 0
M  V30 46 H  -41.9514 28.5082 -5.0576 0
M  V30 47 H  -44.1917 28.7140 -6.5716 0
M  V30 48 H  -45.8150 30.1446 -5.3332 0
M  V30 END ATOM
M  V30 BEGIN BOND
M  V30 1 1 1 2
M  V30 2 1 1 29
M  V30 3 1 1 30
M  V30 4 1 1 31
M  V30 5 1 2 3
M  V30 6 2 2 27
M  V30 7 1 3 4
M  V30 8 1 3 32
M  V30 9 1 4 5
M  V30 10 2 4 28
M  V30 11 2 5 6
M  V30 12 1 5 33
M  V30 13 1 6 7
M  V30 14 1 6 27
M  V30 15 1 7 8
M  V30 16 2 7 26
M  V30 17 1 8 9
M  V30 18 1 8 12
M  V30 19 1 9 10
M  V30 20 1 9 34
M  V30 21 1 9 35
M  V30 22 1 10 11
M  V30 23 1 10 36
M  V30 24 1 10 37
M  V30 25 1 11 12
M  V30 26 1 11 13
M  V30 27 1 11 38
M  V30 28 1 12 39
M  V30 29 1 12 40
M  V30 30 1 13 14
M  V30 31 1 13 41
M  V30 32 1 14 15
M  V30 33 2 14 25
M  V30 34 1 15 16
M  V30 35 1 15 42
M  V30 36 1 15 43
M  V30 37 2 16 17
M  V30 38 1 16 24
M  V30 39 1 17 18
M  V30 40 1 17 44
M  V30 41 2 18 19
M  V30 42 1 18 45
M  V30 43 1 19 20
M  V30 44 1 19 23
M  V30 45 2 20 21
M  V30 46 1 20 46
M  V30 47 1 21 22
M  V30 48 1 21 47
M  V30 49 1 22 23
M  V30 50 1 22 48
M  V30 51 2 23 24
M  V30 END BOND
M  V30 END CTAB
M  END
> <s_m_entry_id>
110

> <i_f3d_flags>
0

> <r_lp_tautomer_probability>
0.839156726741544

> <r_epik_Ionization_Penalty>
  0.0386

> <r_epik_State_Penalty>
  0.1177

> <i_epik_Tot_Q>
0

> <r_i_docking_score>
-5.94894022152358

> <r_i_glide_gscore>
-6.06664022152358

> <r_i_glide_emodel>
-55.5620428615773

> <s_m_subgroup_title>
nsp13-core1_lib_top-500_pv

> <s_m_subgroupid>
nsp13-core1_lib_top-500_pv

> <b_m_subgroup_collapsed>
0

$$$$
Core_1_EN300-61694_EN300-61694
                    3D
 Schrodinger Suite 2023-1.
  0  0  0     0  0            999 V3000
M  V30 BEGIN CTAB
M  V30 COUNTS 40 43 0 0 0
M  V30 BEGIN ATOM
M  V30 1 C  -38.9724 41.0628 -6.9381 0
M  V30 2 N  -38.9424 39.9562 -6.0072 0 CFG=3
M  V30 3 N  -38.7321 38.6837 -6.4103 0
M  V30 4 C  -38.7516 38.0244 -5.2797 0
M  V30 5 C  -38.9686 38.9096 -4.1888 0
M  V30 6 C  -38.9381 38.5841 -2.7293 0
M  V30 7 N  -39.5509 37.4567 -2.2931 0
M  V30 8 C  -39.4977 37.0606 -0.8856 0
M  V30 9 C  -40.2607 35.7437 -0.7734 0
M  V30 10 C  -41.2042 35.7501 -1.9697 0 CFG=1
M  V30 11 C  -40.4502 36.5664 -3.0335 0
M  V30 12 N  -41.5281 34.3890 -2.3915 0
M  V30 13 C  -42.6026 34.0454 -3.1162 0
M  V30 14 C  -42.8052 32.6024 -3.3390 0
M  V30 15 C  -42.3512 31.5117 -2.5944 0
M  V30 16 C  -42.8551 30.4668 -3.3026 0
M  V30 17 C  -43.5522 30.8836 -4.3274 0
M  V30 18 C  -44.0477 29.7800 -5.0615 0
M  V30 19 C  -43.5514 28.6836 -4.3625 0
M  V30 20 N  -42.8123 29.1058 -3.2381 0
M  V30 21 O  -43.5969 32.2245 -4.4297 0
M  V30 22 O  -43.3746 34.8653 -3.6103 0
M  V30 23 O  -38.3600 39.3411 -1.9482 0
M  V30 24 N  -39.0822 40.1265 -4.6700 0
M  V30 25 H  -39.5769 41.8758 -6.5343 0
M  V30 26 H  -37.9567 41.4214 -7.1085 0
M  V30 27 H  -39.4015 40.7407 -7.8875 0
M  V30 28 H  -38.5863 36.9579 -5.2669 0
M  V30 29 H  -39.9820 37.8289 -0.2802 0
M  V30 30 H  -38.4698 36.9554 -0.5342 0
M  V30 31 H  -40.7852 35.6424 0.1772 0
M  V30 32 H  -39.5525 34.9177 -0.8486 0
M  V30 33 H  -42.1134 36.2856 -1.6884 0
M  V30 34 H  -39.8596 35.9114 -3.6747 0
M  V30 35 H  -41.1493 37.1250 -3.6561 0
M  V30 36 H  -40.9356 33.6473 -2.0485 0
M  V30 37 H  -41.7419 31.4962 -1.7022 0
M  V30 38 H  -44.6453 29.7699 -5.9614 0
M  V30 39 H  -43.6613 27.6280 -4.5629 0
M  V30 40 H  -42.3519 28.5297 -2.5403 0
M  V30 END ATOM
M  V30 BEGIN BOND
M  V30 1 1 1 2
M  V30 2 1 1 25
M  V30 3 1 1 26
M  V30 4 1 1 27
M  V30 5 1 2 3
M  V30 6 1 2 24
M  V30 7 2 3 4
M  V30 8 1 4 5
M  V30 9 1 4 28
M  V30 10 1 5 6
M  V30 11 2 5 24
M  V30 12 1 6 7
M  V30 13 2 6 23
M  V30 14 1 7 8
M  V30 15 1 7 11
M  V30 16 1 8 9
M  V30 17 1 8 29
M  V30 18 1 8 30
M  V30 19 1 9 10
M  V30 20 1 9 31
M  V30 21 1 9 32
M  V30 22 1 10 11
M  V30 23 1 10 12
M  V30 24 1 10 33
M  V30 25 1 11 34
M  V30 26 1 11 35
M  V30 27 1 12 13
M  V30 28 1 12 36
M  V30 29 1 13 14
M  V30 30 2 13 22
M  V30 31 2 14 15
M  V30 32 1 14 21
M  V30 33 1 15 16
M  V30 34 1 15 37
M  V30 35 2 16 17
M  V30 36 1 16 20
M  V30 37 1 17 18
M  V30 38 1 17 21
M  V30 39 2 18 19
M  V30 40 1 18 38
M  V30 41 1 19 20
M  V30 42 1 19 39
M  V30 43 1 20 40
M  V30 END BOND
M  V30 END CTAB
M  END
> <s_m_entry_id>
111

> <i_f3d_flags>
0

> <r_lp_tautomer_probability>
1

> <r_epik_Ionization_Penalty>
  0.0000

> <r_epik_State_Penalty>
  0.0000

> <i_epik_Tot_Q>
0

> <r_i_docking_score>
-5.94686899449955

> <r_i_glide_gscore>
-5.94686899449955

> <r_i_glide_emodel>
-50.5546501075148

> <s_m_subgroup_title>
nsp13-core1_lib_top-500_pv

> <s_m_subgroupid>
nsp13-core1_lib_top-500_pv

> <b_m_subgroup_collapsed>
0

$$$$
Core_1_EN300-34635_EN300-34635
                    3D
 Schrodinger Suite 2023-1.
  0  0  0     0  0            999 V3000
M  V30 BEGIN CTAB
M  V30 COUNTS 41 43 0 0 0
M  V30 BEGIN ATOM
M  V30 1 C  -39.9273 35.0012 -3.4901 0
M  V30 2 C  -39.6676 36.5010 -3.4043 0
M  V30 3 N  -40.7954 37.0702 -2.6678 0
M  V30 4 C  -41.6416 36.0056 -2.1243 0
M  V30 5 C  -40.8124 34.7189 -2.2804 0 CFG=1
M  V30 6 N  -41.5578 33.4624 -2.3939 0
M  V30 7 C  -42.5279 33.1432 -3.2721 0
M  V30 8 C  -42.8560 31.6860 -3.3606 0
M  V30 9 C  -43.9288 31.2113 -4.3007 0
M  V30 10 C  -43.9636 29.7589 -4.5487 0
M  V30 11 C  -43.1827 28.9638 -3.8027 0
M  V30 12 N  -42.3506 29.4794 -2.8092 0
M  V30 13 N  -42.1828 30.8310 -2.6499 0
M  V30 14 O  -44.7504 31.9654 -4.8102 0
M  V30 15 O  -43.0543 33.9739 -4.0093 0
M  V30 16 C  -41.0239 38.3837 -2.4408 0
M  V30 17 C  -39.9163 39.4205 -2.7124 0
M  V30 18 C  -39.5153 39.5419 -4.1750 0
M  V30 19 C  -38.1766 39.3214 -4.5635 0
M  V30 20 C  -37.8493 39.3950 -5.9293 0
M  V30 21 N  -38.7538 39.6669 -6.8922 0
M  V30 22 C  -40.0265 39.9097 -6.5135 0
M  V30 23 C  -40.4547 39.8727 -5.1729 0
M  V30 24 O  -42.0733 38.7777 -1.9308 0
M  V30 25 H  -40.4716 34.7970 -4.4123 0
M  V30 26 H  -39.0105 34.4113 -3.5140 0
M  V30 27 H  -39.5736 36.9134 -4.4085 0
M  V30 28 H  -38.7514 36.7022 -2.8533 0
M  V30 29 H  -41.8939 36.1813 -1.0776 0
M  V30 30 H  -42.5719 35.9946 -2.6894 0
M  V30 31 H  -40.1684 34.6377 -1.4038 0
M  V30 32 H  -41.2158 32.6974 -1.8270 0
M  V30 33 H  -44.6127 29.3670 -5.3184 0
M  V30 34 H  -43.1374 27.8897 -3.9045 0
M  V30 35 H  -41.8911 28.8672 -2.1355 0
M  V30 36 H  -39.0472 39.1665 -2.1042 0
M  V30 37 H  -40.2525 40.4001 -2.3704 0
M  V30 38 H  -37.4141 39.0831 -3.8362 0
M  V30 39 H  -36.8364 39.2112 -6.2585 0
M  V30 40 H  -40.7276 40.1320 -7.3055 0
M  V30 41 H  -41.4902 40.0574 -4.9255 0
M  V30 END ATOM
M  V30 BEGIN BOND
M  V30 1 1 1 2
M  V30 2 1 1 5
M  V30 3 1 1 25
M  V30 4 1 1 26
M  V30 5 1 2 3
M  V30 6 1 2 27
M  V30 7 1 2 28
M  V30 8 1 3 4
M  V30 9 1 3 16
M  V30 10 1 4 5
M  V30 11 1 4 29
M  V30 12 1 4 30
M  V30 13 1 5 6
M  V30 14 1 5 31
M  V30 15 1 6 7
M  V30 16 1 6 32
M  V30 17 1 7 8
M  V30 18 2 7 15
M  V30 19 1 8 9
M  V30 20 2 8 13
M  V30 21 1 9 10
M  V30 22 2 9 14
M  V30 23 2 10 11
M  V30 24 1 10 33
M  V30 25 1 11 12
M  V30 26 1 11 34
M  V30 27 1 12 13
M  V30 28 1 12 35
M  V30 29 1 16 17
M  V30 30 2 16 24
M  V30 31 1 17 18
M  V30 32 1 17 36
M  V30 33 1 17 37
M  V30 34 2 18 19
M  V30 35 1 18 23
M  V30 36 1 19 20
M  V30 37 1 19 38
M  V30 38 2 20 21
M  V30 39 1 20 39
M  V30 40 1 21 22
M  V30 41 2 22 23
M  V30 42 1 22 40
M  V30 43 1 23 41
M  V30 END BOND
M  V30 END CTAB
M  END
> <s_m_entry_id>
112

> <i_f3d_flags>
0

> <r_lp_tautomer_probability>
0.999746388232414

> <r_epik_Ionization_Penalty>
  0.4647

> <r_epik_State_Penalty>
  0.0666

> <i_epik_Tot_Q>
0

> <r_i_docking_score>
-5.94564762872027

> <r_i_glide_gscore>
-6.01224762872027

> <r_i_glide_emodel>
-52.1560978701166

> <s_m_subgroup_title>
nsp13-core1_lib_top-500_pv

> <s_m_subgroupid>
nsp13-core1_lib_top-500_pv

> <b_m_subgroup_collapsed>
0

$$$$
Core_1_EN300-6758811_EN300-6758811
                    3D
 Schrodinger Suite 2023-1.
  0  0  0     0  0            999 V3000
M  V30 BEGIN CTAB
M  V30 COUNTS 46 50 0 0 0
M  V30 BEGIN ATOM
M  V30 1 C  -42.8105 35.4713 0.5853 0
M  V30 2 C  -41.2867 35.5677 0.6075 0
M  V30 3 N  -40.9024 36.2873 -0.6060 0
M  V30 4 C  -42.0574 36.4306 -1.4973 0
M  V30 5 C  -43.1809 35.5773 -0.8895 0 CFG=1
M  V30 6 N  -43.2476 34.2458 -1.4870 0
M  V30 7 C  -43.5577 33.9477 -2.7581 0
M  V30 8 C  -43.5333 32.5145 -3.0901 0
M  V30 9 C  -42.9035 31.4663 -2.4178 0
M  V30 10 C  -43.2007 30.4131 -3.2225 0
M  V30 11 C  -43.9176 30.7861 -4.2497 0
M  V30 12 C  -44.1922 29.6725 -5.0797 0
M  V30 13 C  -43.5490 28.6242 -4.4280 0
M  V30 14 N  -42.9247 29.0834 -3.2501 0
M  V30 15 O  -44.1847 32.1041 -4.2614 0
M  V30 16 O  -43.8578 34.7818 -3.6097 0
M  V30 17 C  -39.6563 36.7839 -0.7819 0
M  V30 18 C  -39.3335 37.5049 -2.0620 0
M  V30 19 C  -39.5231 36.8868 -3.3192 0
M  V30 20 C  -39.1513 37.5511 -4.5022 0
M  V30 21 C  -38.5727 38.8345 -4.4430 0
M  V30 22 C  -38.1472 39.5556 -5.6898 0
M  V30 23 N  -37.5515 40.7484 -5.4743 0
M  V30 24 N  -37.3310 41.3509 -4.2497 0
M  V30 25 C  -37.7026 40.7669 -3.1558 0
M  V30 26 C  -38.3559 39.4486 -3.1876 0
M  V30 27 C  -38.7359 38.7841 -2.0025 0
M  V30 28 O  -38.3279 39.0843 -6.8103 0
M  V30 29 O  -38.7809 36.6929 0.0777 0
M  V30 30 H  -43.2280 36.3252 1.1191 0
M  V30 31 H  -43.1875 34.5703 1.0716 0
M  V30 32 H  -40.9360 36.0647 1.5117 0
M  V30 33 H  -40.8425 34.5740 0.5820 0
M  V30 34 H  -41.8619 36.1566 -2.5285 0
M  V30 35 H  -42.3528 37.4815 -1.5012 0
M  V30 36 H  -44.1521 36.0586 -1.0162 0
M  V30 37 H  -43.0341 33.4748 -0.8717 0
M  V30 38 H  -42.3191 31.4832 -1.5078 0
M  V30 39 H  -44.7487 29.6275 -6.0052 0
M  V30 40 H  -43.4766 27.5812 -4.7003 0
M  V30 41 H  -42.3967 28.5453 -2.5692 0
M  V30 42 H  -39.9149 35.8840 -3.3897 0
M  V30 43 H  -39.2970 37.0618 -5.4548 0
M  V30 44 H  -37.2162 41.2711 -6.2717 0
M  V30 45 H  -37.5277 41.2559 -2.1971 0
M  V30 46 H  -38.5532 39.2485 -1.0435 0
M  V30 END ATOM
M  V30 BEGIN BOND
M  V30 1 1 1 2
M  V30 2 1 1 5
M  V30 3 1 1 30
M  V30 4 1 1 31
M  V30 5 1 2 3
M  V30 6 1 2 32
M  V30 7 1 2 33
M  V30 8 1 3 4
M  V30 9 1 3 17
M  V30 10 1 4 5
M  V30 11 1 4 34
M  V30 12 1 4 35
M  V30 13 1 5 6
M  V30 14 1 5 36
M  V30 15 1 6 7
M  V30 16 1 6 37
M  V30 17 1 7 8
M  V30 18 2 7 16
M  V30 19 2 8 9
M  V30 20 1 8 15
M  V30 21 1 9 10
M  V30 22 1 9 38
M  V30 23 2 10 11
M  V30 24 1 10 14
M  V30 25 1 11 12
M  V30 26 1 11 15
M  V30 27 2 12 13
M  V30 28 1 12 39
M  V30 29 1 13 14
M  V30 30 1 13 40
M  V30 31 1 14 41
M  V30 32 1 17 18
M  V30 33 2 17 29
M  V30 34 2 18 19
M  V30 35 1 18 27
M  V30 36 1 19 20
M  V30 37 1 19 42
M  V30 38 2 20 21
M  V30 39 1 20 43
M  V30 40 1 21 22
M  V30 41 1 21 26
M  V30 42 1 22 23
M  V30 43 2 22 28
M  V30 44 1 23 24
M  V30 45 1 23 44
M  V30 46 2 24 25
M  V30 47 1 25 26
M  V30 48 1 25 45
M  V30 49 2 26 27
M  V30 50 1 27 46
M  V30 END BOND
M  V30 END CTAB
M  END
> <s_m_entry_id>
113

> <i_f3d_flags>
0

> <r_lp_tautomer_probability>
1

> <r_epik_Ionization_Penalty>
  0.0025

> <r_epik_State_Penalty>
  0.0000

> <i_epik_Tot_Q>
0

> <r_i_docking_score>
-5.94401759322317

> <r_i_glide_gscore>
-5.94401759322317

> <r_i_glide_emodel>
-56.150026166823

> <s_m_subgroup_title>
nsp13-core1_lib_top-500_pv

> <s_m_subgroupid>
nsp13-core1_lib_top-500_pv

> <b_m_subgroup_collapsed>
0

$$$$
Core_1_EN300-27780119_EN300-27780119
                    3D
 Schrodinger Suite 2023-1.
  0  0  0     0  0            999 V3000
M  V30 BEGIN CTAB
M  V30 COUNTS 46 50 0 0 0
M  V30 BEGIN ATOM
M  V30 1 C  -42.2202 39.7809 -2.7501 0
M  V30 2 N  -41.9166 39.9319 -4.1597 0
M  V30 3 C  -42.7552 40.4106 -5.0990 0
M  V30 4 N  -42.2906 40.5150 -6.3401 0
M  V30 5 C  -40.9990 40.0376 -6.1917 0
M  V30 6 C  -39.9686 39.8984 -7.1513 0
M  V30 7 N  -38.7504 39.4140 -6.8095 0
M  V30 8 C  -38.5093 39.0397 -5.5351 0
M  V30 9 C  -39.4678 39.1071 -4.5097 0
M  V30 10 C  -39.0841 38.7086 -3.1188 0
M  V30 11 N  -39.6443 37.6027 -2.5783 0
M  V30 12 C  -39.3781 37.2027 -1.2002 0
M  V30 13 C  -40.0734 35.8547 -0.9985 0
M  V30 14 C  -41.1441 35.8052 -2.0833 0 CFG=1
M  V30 15 C  -40.5487 36.6483 -3.2236 0
M  V30 16 N  -41.4725 34.4307 -2.4638 0
M  V30 17 C  -42.5734 34.0616 -3.1375 0
M  V30 18 C  -42.7850 32.6136 -3.3340 0
M  V30 19 C  -42.3280 31.5246 -2.5860 0
M  V30 20 C  -42.8435 30.4742 -3.2805 0
M  V30 21 C  -43.5509 30.8868 -4.3001 0
M  V30 22 C  -44.0526 29.7801 -5.0254 0
M  V30 23 C  -43.5514 28.6831 -4.3297 0
M  V30 24 N  -42.8051 29.1119 -3.2113 0
M  V30 25 O  -43.5907 32.2263 -4.4128 0
M  V30 26 O  -43.3687 34.8727 -3.6090 0
M  V30 27 O  -38.2656 39.4001 -2.5148 0
M  V30 28 C  -40.7333 39.6408 -4.8429 0
M  V30 29 H  -43.1088 40.3592 -2.4938 0
M  V30 30 H  -42.4123 38.7342 -2.5184 0
M  V30 31 H  -41.3864 40.1412 -2.1469 0
M  V30 32 H  -43.7634 40.7172 -4.8556 0
M  V30 33 H  -40.1187 40.1840 -8.1823 0
M  V30 34 H  -37.5094 38.6757 -5.3378 0
M  V30 35 H  -39.7936 37.9540 -0.5234 0
M  V30 36 H  -38.3046 37.1294 -1.0020 0
M  V30 37 H  -40.4810 35.7429 0.0068 0
M  V30 38 H  -39.3346 35.0684 -1.1462 0
M  V30 39 H  -42.0383 36.3039 -1.7059 0
M  V30 40 H  -39.9768 36.0338 -3.9221 0
M  V30 41 H  -41.3385 37.1439 -3.7854 0
M  V30 42 H  -40.8589 33.6983 -2.1349 0
M  V30 43 H  -41.7070 31.5180 -1.7023 0
M  V30 44 H  -44.6564 29.7714 -5.9205 0
M  V30 45 H  -43.6635 27.6270 -4.5200 0
M  V30 46 H  -42.3507 28.5345 -2.5107 0
M  V30 END ATOM
M  V30 BEGIN BOND
M  V30 1 1 1 2
M  V30 2 1 1 29
M  V30 3 1 1 30
M  V30 4 1 1 31
M  V30 5 1 2 3
M  V30 6 1 2 28
M  V30 7 2 3 4
M  V30 8 1 3 32
M  V30 9 1 4 5
M  V30 10 2 5 6
M  V30 11 1 5 28
M  V30 12 1 6 7
M  V30 13 1 6 33
M  V30 14 2 7 8
M  V30 15 1 8 9
M  V30 16 1 8 34
M  V30 17 1 9 10
M  V30 18 2 9 28
M  V30 19 1 10 11
M  V30 20 2 10 27
M  V30 21 1 11 12
M  V30 22 1 11 15
M  V30 23 1 12 13
M  V30 24 1 12 35
M  V30 25 1 12 36
M  V30 26 1 13 14
M  V30 27 1 13 37
M  V30 28 1 13 38
M  V30 29 1 14 15
M  V30 30 1 14 16
M  V30 31 1 14 39
M  V30 32 1 15 40
M  V30 33 1 15 41
M  V30 34 1 16 17
M  V30 35 1 16 42
M  V30 36 1 17 18
M  V30 37 2 17 26
M  V30 38 2 18 19
M  V30 39 1 18 25
M  V30 40 1 19 20
M  V30 41 1 19 43
M  V30 42 2 20 21
M  V30 43 1 20 24
M  V30 44 1 21 22
M  V30 45 1 21 25
M  V30 46 2 22 23
M  V30 47 1 22 44
M  V30 48 1 23 24
M  V30 49 1 23 45
M  V30 50 1 24 46
M  V30 END BOND
M  V30 END CTAB
M  END
> <s_m_entry_id>
115

> <i_f3d_flags>
0

> <r_lp_tautomer_probability>
1

> <r_epik_Ionization_Penalty>
  0.0057

> <r_epik_State_Penalty>
  0.0055

> <i_epik_Tot_Q>
0

> <r_i_docking_score>
-5.94086935651265

> <r_i_glide_gscore>
-5.94636935651264

> <r_i_glide_emodel>
-56.148844568087

> <s_m_subgroup_title>
nsp13-core1_lib_top-500_pv

> <s_m_subgroupid>
nsp13-core1_lib_top-500_pv

> <b_m_subgroup_collapsed>
0

$$$$
Core_1_EN300-101505_EN300-101505
                    3D
 Schrodinger Suite 2023-1.
  0  0  0     0  0            999 V3000
M  V30 BEGIN CTAB
M  V30 COUNTS 39 42 0 0 0
M  V30 BEGIN ATOM
M  V30 1 C  -40.3470 35.4718 -0.5513 0
M  V30 2 C  -39.6796 36.8427 -0.6675 0
M  V30 3 N  -39.9052 37.2822 -2.0416 0
M  V30 4 C  -40.8472 36.3931 -2.7229 0
M  V30 5 C  -41.4240 35.4792 -1.6313 0 CFG=1
M  V30 6 N  -41.7204 34.1320 -2.1019 0
M  V30 7 C  -42.6572 33.8221 -3.0084 0
M  V30 8 C  -42.8293 32.3883 -3.2894 0
M  V30 9 C  -42.3573 31.2808 -2.5814 0
M  V30 10 C  -42.8492 30.2583 -3.3299 0
M  V30 11 C  -43.5439 30.7000 -4.3458 0
M  V30 12 C  -44.0392 29.6150 -5.1081 0
M  V30 13 C  -43.5518 28.5021 -4.4294 0
M  V30 14 N  -42.8144 28.8995 -3.2945 0
M  V30 15 O  -43.6006 32.0411 -4.4062 0
M  V30 16 O  -43.3256 34.6627 -3.6077 0
M  V30 17 C  -39.3251 38.3808 -2.5709 0
M  V30 18 C  -39.6796 38.7629 -4.0211 0 CFG=1
M  V30 19 C  -38.9463 39.9692 -4.6302 0
M  V30 20 C  -38.3565 38.9554 -5.6137 0
M  V30 21 N  -39.0009 37.9137 -5.0034 0
M  V30 22 O  -37.6204 38.9806 -6.5761 0
M  V30 23 O  -38.5343 39.0740 -1.9301 0
M  V30 24 H  -39.6047 34.7005 -0.7618 0
M  V30 25 H  -40.7465 35.2837 0.4466 0
M  V30 26 H  -38.6171 36.7980 -0.4209 0
M  V30 27 H  -40.1558 37.5550 0.0070 0
M  V30 28 H  -41.6476 36.9363 -3.2288 0
M  V30 29 H  -40.3083 35.8135 -3.4752 0
M  V30 30 H  -42.3291 35.9334 -1.2203 0
M  V30 31 H  -41.2131 33.3731 -1.6696 0
M  V30 32 H  -41.7633 31.2368 -1.6798 0
M  V30 33 H  -44.6384 29.6267 -6.0072 0
M  V30 34 H  -43.6689 27.4531 -4.6493 0
M  V30 35 H  -42.3691 28.3097 -2.5962 0
M  V30 36 H  -40.7577 38.8294 -4.1748 0
M  V30 37 H  -38.2206 40.4641 -3.9858 0
M  V30 38 H  -39.6269 40.6974 -5.0748 0
M  V30 39 H  -39.0294 36.9236 -5.1982 0
M  V30 END ATOM
M  V30 BEGIN BOND
M  V30 1 1 1 2
M  V30 2 1 1 5
M  V30 3 1 1 24
M  V30 4 1 1 25
M  V30 5 1 2 3
M  V30 6 1 2 26
M  V30 7 1 2 27
M  V30 8 1 3 4
M  V30 9 1 3 17
M  V30 10 1 4 5
M  V30 11 1 4 28
M  V30 12 1 4 29
M  V30 13 1 5 6
M  V30 14 1 5 30
M  V30 15 1 6 7
M  V30 16 1 6 31
M  V30 17 1 7 8
M  V30 18 2 7 16
M  V30 19 2 8 9
M  V30 20 1 8 15
M  V30 21 1 9 10
M  V30 22 1 9 32
M  V30 23 2 10 11
M  V30 24 1 10 14
M  V30 25 1 11 12
M  V30 26 1 11 15
M  V30 27 2 12 13
M  V30 28 1 12 33
M  V30 29 1 13 14
M  V30 30 1 13 34
M  V30 31 1 14 35
M  V30 32 1 17 18
M  V30 33 2 17 23
M  V30 34 1 18 19
M  V30 35 1 18 21
M  V30 36 1 18 36
M  V30 37 1 19 20
M  V30 38 1 19 37
M  V30 39 1 19 38
M  V30 40 1 20 21
M  V30 41 2 20 22
M  V30 42 1 21 39
M  V30 END BOND
M  V30 END CTAB
M  END
> <s_m_entry_id>
119

> <i_f3d_flags>
0

> <r_lp_tautomer_probability>
1

> <r_epik_Ionization_Penalty>
  0.0000

> <r_epik_State_Penalty>
  0.0000

> <i_epik_Tot_Q>
0

> <r_i_docking_score>
-5.93479877807745

> <r_i_glide_gscore>
-5.93479877807745

> <r_i_glide_emodel>
-53.4320858671752

> <s_m_subgroup_title>
nsp13-core1_lib_top-500_pv

> <s_m_subgroupid>
nsp13-core1_lib_top-500_pv

> <b_m_subgroup_collapsed>
0

$$$$
Core_1_EN300-16693_EN300-16693
                    3D
 Schrodinger Suite 2023-1.
  0  0  0     0  0            999 V3000
M  V30 BEGIN CTAB
M  V30 COUNTS 40 43 0 0 0
M  V30 BEGIN ATOM
M  V30 1 C  -39.9686 35.8308 -1.0316 0
M  V30 2 C  -39.3375 37.2145 -1.1785 0
M  V30 3 N  -39.6269 37.6499 -2.5427 0
M  V30 4 C  -40.6047 36.7514 -3.1683 0
M  V30 5 C  -41.1055 35.8205 -2.0499 0 CFG=1
M  V30 6 N  -41.4203 34.4595 -2.4884 0
M  V30 7 C  -42.5322 34.1069 -3.1498 0
M  V30 8 C  -42.7484 32.6608 -3.3549 0
M  V30 9 C  -42.3011 31.5739 -2.6030 0
M  V30 10 C  -42.8264 30.5253 -3.2906 0
M  V30 11 C  -43.5317 30.9366 -4.3112 0
M  V30 12 C  -44.0460 29.8287 -5.0266 0
M  V30 13 C  -43.5515 28.7343 -4.3216 0
M  V30 14 N  -42.7979 29.1629 -3.2101 0
M  V30 15 O  -43.5611 32.2776 -4.4301 0
M  V30 16 O  -43.3305 34.9242 -3.6054 0
M  V30 17 C  -38.9688 38.6788 -3.1234 0
M  V30 18 C  -39.3801 39.1107 -4.4952 0
M  V30 19 C  -40.6574 39.6575 -4.7406 0
M  V30 20 C  -40.9612 40.1171 -6.0369 0
M  V30 21 C  -39.9779 39.9952 -7.0375 0
M  V30 22 N  -38.7489 39.4831 -6.8100 0
M  V30 23 C  -38.4586 39.0680 -5.5606 0
M  V30 24 O  -38.0416 39.2716 -2.5693 0
M  V30 25 H  -40.3069 35.6257 -0.0154 0
M  V30 26 H  -39.2189 35.0829 -1.2931 0
M  V30 27 H  -39.7959 37.9196 -0.4807 0
M  V30 28 H  -38.2672 37.1811 -0.9701 0
M  V30 29 H  -40.1104 36.1921 -3.9645 0
M  V30 30 H  -41.4425 37.2947 -3.6045 0
M  V30 31 H  -41.9842 36.2700 -1.5845 0
M  V30 32 H  -40.8021 33.7238 -2.1791 0
M  V30 33 H  -41.6837 31.5634 -1.7172 0
M  V30 34 H  -44.6548 29.8119 -5.9177 0
M  V30 35 H  -43.6711 27.6777 -4.5078 0
M  V30 36 H  -42.3445 28.5869 -2.5072 0
M  V30 37 H  -41.3882 39.7381 -3.9498 0
M  V30 38 H  -41.9314 40.5347 -6.2606 0
M  V30 39 H  -40.1814 40.3256 -8.0447 0
M  V30 40 H  -37.4606 38.6845 -5.4123 0
M  V30 END ATOM
M  V30 BEGIN BOND
M  V30 1 1 1 2
M  V30 2 1 1 5
M  V30 3 1 1 25
M  V30 4 1 1 26
M  V30 5 1 2 3
M  V30 6 1 2 27
M  V30 7 1 2 28
M  V30 8 1 3 4
M  V30 9 1 3 17
M  V30 10 1 4 5
M  V30 11 1 4 29
M  V30 12 1 4 30
M  V30 13 1 5 6
M  V30 14 1 5 31
M  V30 15 1 6 7
M  V30 16 1 6 32
M  V30 17 1 7 8
M  V30 18 2 7 16
M  V30 19 2 8 9
M  V30 20 1 8 15
M  V30 21 1 9 10
M  V30 22 1 9 33
M  V30 23 2 10 11
M  V30 24 1 10 14
M  V30 25 1 11 12
M  V30 26 1 11 15
M  V30 27 2 12 13
M  V30 28 1 12 34
M  V30 29 1 13 14
M  V30 30 1 13 35
M  V30 31 1 14 36
M  V30 32 1 17 18
M  V30 33 2 17 24
M  V30 34 2 18 19
M  V30 35 1 18 23
M  V30 36 1 19 20
M  V30 37 1 19 37
M  V30 38 2 20 21
M  V30 39 1 20 38
M  V30 40 1 21 22
M  V30 41 1 21 39
M  V30 42 2 22 23
M  V30 43 1 23 40
M  V30 END BOND
M  V30 END CTAB
M  END
> <s_m_entry_id>
123

> <i_f3d_flags>
0

> <r_lp_tautomer_probability>
1

> <r_epik_Ionization_Penalty>
  0.0003

> <r_epik_State_Penalty>
  0.0000

> <i_epik_Tot_Q>
0

> <r_i_docking_score>
-5.92632725633097

> <r_i_glide_gscore>
-5.92632725633097

> <r_i_glide_emodel>
-52.5887158905946

> <s_m_subgroup_title>
nsp13-core1_lib_top-500_pv

> <s_m_subgroupid>
nsp13-core1_lib_top-500_pv

> <b_m_subgroup_collapsed>
0

$$$$
Core_1_EN300-37325183_EN300-37325183
                    3D
 Schrodinger Suite 2023-1.
  0  0  0     0  0            999 V3000
M  V30 BEGIN CTAB
M  V30 COUNTS 50 53 0 0 0
M  V30 BEGIN ATOM
M  V30 1 C  -42.6073 30.4415 -4.0635 0
M  V30 2 N  -43.0518 30.8569 -2.7405 0
M  V30 3 C  -44.2653 30.6632 -2.2109 0
M  V30 4 N  -44.2027 31.0735 -0.9340 0
M  V30 5 C  -44.6911 32.4240 -0.6317 0
M  V30 6 C  -43.8893 33.4537 -1.4930 0
M  V30 7 C  -42.3809 33.0589 -1.6743 0 CFG=2
M  V30 8 C  -41.7415 33.7789 -2.8758 0
M  V30 9 N  -40.7677 34.6924 -2.6693 0
M  V30 10 C  -40.4273 35.3180 -1.3904 0
M  V30 11 C  -39.3662 36.3808 -1.6858 0
M  V30 12 C  -39.4252 36.6061 -3.1972 0 CFG=1
M  V30 13 C  -40.0210 35.3160 -3.7576 0
M  V30 14 N  -40.2133 37.7642 -3.6049 0
M  V30 15 C  -39.8584 39.0417 -3.3987 0
M  V30 16 C  -40.7074 40.1086 -4.0860 0
M  V30 17 C  -40.1744 40.3714 -5.4560 0
M  V30 18 C  -39.4467 41.4145 -5.9637 0
M  V30 19 C  -39.2139 41.0467 -7.3201 0
M  V30 20 N  -39.7639 39.8843 -7.6325 0
M  V30 21 N  -40.3511 39.4840 -6.4910 0
M  V30 22 O  -38.8786 39.3717 -2.7316 0
M  V30 23 O  -42.1189 33.4846 -4.0101 0
M  V30 24 C  -42.1883 31.5030 -1.7584 0 CFG=1
M  V30 25 C  -42.8209 30.9339 -0.5053 0
M  V30 26 O  -45.2674 30.2846 -2.8120 0
M  V30 27 H  -42.7445 29.3689 -4.1967 0
M  V30 28 H  -43.1741 30.9594 -4.8373 0
M  V30 29 H  -41.5516 30.6643 -4.2102 0
M  V30 30 H  -44.5481 32.6239 0.4324 0
M  V30 31 H  -45.7633 32.5020 -0.8207 0
M  V30 32 H  -43.9669 34.4471 -1.0480 0
M  V30 33 H  -44.3661 33.5328 -2.4728 0
M  V30 34 H  -41.8713 33.3624 -0.7621 0
M  V30 35 H  -40.0451 34.5905 -0.6694 0
M  V30 36 H  -41.3168 35.7815 -0.9658 0
M  V30 37 H  -38.3803 35.9871 -1.4270 0
M  V30 38 H  -39.5121 37.2889 -1.0970 0
M  V30 39 H  -38.4341 36.7619 -3.6172 0
M  V30 40 H  -40.6158 35.4830 -4.6582 0
M  V30 41 H  -39.2090 34.6380 -4.0130 0
M  V30 42 H  -41.0122 37.5783 -4.1978 0
M  V30 43 H  -40.6893 41.0233 -3.4920 0
M  V30 44 H  -41.7465 39.7867 -4.1361 0
M  V30 45 H  -39.1120 42.2973 -5.4401 0
M  V30 46 H  -38.6607 41.5814 -8.0796 0
M  V30 47 H  -40.8364 38.5912 -6.4118 0
M  V30 48 H  -41.1513 31.2162 -1.8718 0
M  V30 49 H  -42.5521 31.4931 0.3886 0
M  V30 50 H  -42.5574 29.8847 -0.3505 0
M  V30 END ATOM
M  V30 BEGIN BOND
M  V30 1 1 1 2
M  V30 2 1 1 27
M  V30 3 1 1 28
M  V30 4 1 1 29
M  V30 5 1 2 3
M  V30 6 1 2 24
M  V30 7 1 3 4
M  V30 8 2 3 26
M  V30 9 1 4 5
M  V30 10 1 4 25
M  V30 11 1 5 6
M  V30 12 1 5 30
M  V30 13 1 5 31
M  V30 14 1 6 7
M  V30 15 1 6 32
M  V30 16 1 6 33
M  V30 17 1 7 8
M  V30 18 1 7 24
M  V30 19 1 7 34
M  V30 20 1 8 9
M  V30 21 2 8 23
M  V30 22 1 9 10
M  V30 23 1 9 13
M  V30 24 1 10 11
M  V30 25 1 10 35
M  V30 26 1 10 36
M  V30 27 1 11 12
M  V30 28 1 11 37
M  V30 29 1 11 38
M  V30 30 1 12 13
M  V30 31 1 12 14
M  V30 32 1 12 39
M  V30 33 1 13 40
M  V30 34 1 13 41
M  V30 35 1 14 15
M  V30 36 1 14 42
M  V30 37 1 15 16
M  V30 38 2 15 22
M  V30 39 1 16 17
M  V30 40 1 16 43
M  V30 41 1 16 44
M  V30 42 2 17 18
M  V30 43 1 17 21
M  V30 44 1 18 19
M  V30 45 1 18 45
M  V30 46 2 19 20
M  V30 47 1 19 46
M  V30 48 1 20 21
M  V30 49 1 21 47
M  V30 50 1 24 25
M  V30 51 1 24 48
M  V30 52 1 25 49
M  V30 53 1 25 50
M  V30 END BOND
M  V30 END CTAB
M  END
> <s_m_entry_id>
124

> <i_f3d_flags>
0

> <r_lp_tautomer_probability>
0.5

> <r_epik_Ionization_Penalty>
  0.0001

> <r_epik_State_Penalty>
  0.4107

> <i_epik_Tot_Q>
0

> <r_i_docking_score>
-5.92538265813213

> <r_i_glide_gscore>
-6.33608265813213

> <r_i_glide_emodel>
-53.6203514514496

> <s_m_subgroup_title>
nsp13-core1_lib_top-500_pv

> <s_m_subgroupid>
nsp13-core1_lib_top-500_pv

> <b_m_subgroup_collapsed>
0

$$$$
Core_1_EN300-45186396_EN300-45186396
                    3D
 Schrodinger Suite 2023-1.
  0  0  0     0  0            999 V3000
M  V30 BEGIN CTAB
M  V30 COUNTS 84 88 0 0 0
M  V30 BEGIN ATOM
M  V30 1 C  -44.3728 30.0653 -0.8226 0
M  V30 2 C  -43.5301 31.3342 -0.6164 0 CFG=1
M  V30 3 C  -43.3524 32.1628 -1.8736 0
M  V30 4 C  -43.9233 33.3671 -1.7453 0
M  V30 5 C  -43.9505 34.4192 -2.7616 0
M  V30 6 N  -44.3649 35.5904 -2.2593 0
M  V30 7 C  -44.4571 36.8589 -2.9713 0 CFG=1
M  V30 8 C  -45.4581 37.7902 -2.2935 0
M  V30 9 C  -44.8780 39.1956 -2.4506 0
M  V30 10 N  -43.4454 39.0231 -2.6735 0
M  V30 11 C  -43.1282 37.6182 -2.9444 0
M  V30 12 C  -42.5494 40.0254 -2.5213 0
M  V30 13 C  -41.1998 39.6672 -2.9311 0
M  V30 14 C  -40.1667 39.4372 -2.1175 0
M  V30 15 C  -38.9113 39.1584 -2.9228 0 CFG=2
M  V30 16 C  -37.8208 40.2211 -2.7172 0
M  V30 17 C  -39.4375 39.0624 -4.3786 0 CFG=2
M  V30 18 C  -39.2814 40.1035 -5.5173 0 CFG=2
M  V30 19 C  -40.8260 40.2745 -5.4155 0
M  V30 20 N  -40.7926 39.5577 -4.2441 0
M  V30 21 O  -41.7264 40.7829 -6.0464 0
M  V30 22 C  -38.8589 39.6114 -6.8964 0 CFG=1
M  V30 23 C  -38.8623 40.6954 -7.9841 0
M  V30 24 O  -37.5520 39.0838 -6.8102 0
M  V30 25 S  -40.1885 39.4538 -0.3414 0
M  V30 26 C  -39.0596 38.1230 0.1580 0
M  V30 27 C  -39.6292 36.7347 -0.1788 0
M  V30 28 C  -38.8015 35.6300 0.3326 0
M  V30 29 C  -38.1296 34.7182 0.7887 0
M  V30 30 O  -42.8655 41.1446 -2.1177 0
M  V30 31 O  -43.6417 34.2819 -3.9447 0
M  V30 32 N  -44.4927 33.4492 -0.4814 0
M  V30 33 C  -45.6869 33.7567 0.1253 0
M  V30 34 C  -45.6065 32.4038 0.8941 0 CFG=1
M  V30 35 C  -44.1437 32.3410 0.3852 0 CFG=1
M  V30 36 C  -45.8713 32.5422 2.3979 0 CFG=1
M  V30 37 C  -47.3344 32.8618 2.7421 0
M  V30 38 O  -45.5514 31.3188 3.0238 0
M  V30 39 O  -46.4554 34.6830 -0.0166 0
M  V30 40 S  -42.3519 31.5718 -3.2096 0
M  V30 41 C  -43.4449 30.4901 -4.1577 0
M  V30 42 C  -42.7360 29.1708 -4.4808 0
M  V30 43 C  -43.6111 28.1832 -5.1228 0
M  V30 44 C  -44.3514 27.3452 -5.6103 0
M  V30 45 H  -43.8509 29.3411 -1.4474 0
M  V30 46 H  -44.5747 29.5797 0.1318 0
M  V30 47 H  -45.3296 30.2918 -1.2918 0
M  V30 48 H  -42.5424 31.0333 -0.2638 0
M  V30 49 H  -44.6214 35.5971 -1.2815 0
M  V30 50 H  -44.7512 36.7121 -4.0098 0
M  V30 51 H  -46.4598 37.7043 -2.7157 0
M  V30 52 H  -45.5321 37.5587 -1.2289 0
M  V30 53 H  -45.3080 39.6918 -3.3229 0
M  V30 54 H  -45.0918 39.8092 -1.5718 0
M  V30 55 H  -42.4688 37.2436 -2.1599 0
M  V30 56 H  -42.6138 37.5010 -3.8980 0
M  V30 57 H  -38.5128 38.1894 -2.6270 0
M  V30 58 H  -37.4515 40.2166 -1.6908 0
M  V30 59 H  -36.9691 40.0363 -3.3724 0
M  V30 60 H  -38.1943 41.2243 -2.9246 0
M  V30 61 H  -39.4759 38.0376 -4.7568 0
M  V30 62 H  -38.7286 40.9857 -5.1934 0
M  V30 63 H  -39.5218 38.8011 -7.2101 0
M  V30 64 H  -39.8574 41.1174 -8.1245 0
M  V30 65 H  -38.1901 41.5170 -7.7324 0
M  V30 66 H  -38.5427 40.2859 -8.9437 0
M  V30 67 H  -36.9259 39.7774 -6.9961 0
M  V30 68 H  -38.0833 38.2712 -0.3032 0
M  V30 69 H  -38.9115 38.2099 1.2353 0
M  V30 70 H  -40.6253 36.6200 0.2483 0
M  V30 71 H  -39.7277 36.6052 -1.2570 0
M  V30 72 H  -37.5528 33.9172 1.1936 0
M  V30 73 H  -46.2263 31.6318 0.4385 0
M  V30 74 H  -43.4295 32.6843 1.1370 0
M  V30 75 H  -45.2273 33.3102 2.8284 0
M  V30 76 H  -47.6402 33.8268 2.3398 0
M  V30 77 H  -48.0096 32.1054 2.3429 0
M  V30 78 H  -47.4822 32.9017 3.8214 0
M  V30 79 H  -44.6359 31.0839 2.7897 0
M  V30 80 H  -43.7419 31.0047 -5.0718 0
M  V30 81 H  -44.3554 30.3086 -3.5883 0
M  V30 82 H  -42.3516 28.7140 -3.5678 0
M  V30 83 H  -41.8820 29.3455 -5.1363 0
M  V30 84 H  -45.0079 26.6069 -6.0101 0
M  V30 END ATOM
M  V30 BEGIN BOND
M  V30 1 1 1 2
M  V30 2 1 1 45
M  V30 3 1 1 46
M  V30 4 1 1 47
M  V30 5 1 2 3
M  V30 6 1 2 35
M  V30 7 1 2 48
M  V30 8 2 3 4
M  V30 9 1 3 40
M  V30 10 1 4 5
M  V30 11 1 4 32
M  V30 12 1 5 6
M  V30 13 2 5 31
M  V30 14 1 6 7
M  V30 15 1 6 49
M  V30 16 1 7 8
M  V30 17 1 7 11
M  V30 18 1 7 50
M  V30 19 1 8 9
M  V30 20 1 8 51
M  V30 21 1 8 52
M  V30 22 1 9 10
M  V30 23 1 9 53
M  V30 24 1 9 54
M  V30 25 1 10 11
M  V30 26 1 10 12
M  V30 27 1 11 55
M  V30 28 1 11 56
M  V30 29 1 12 13
M  V30 30 2 12 30
M  V30 31 2 13 14
M  V30 32 1 13 20
M  V30 33 1 14 15
M  V30 34 1 14 25
M  V30 35 1 15 16
M  V30 36 1 15 17
M  V30 37 1 15 57
M  V30 38 1 16 58
M  V30 39 1 16 59
M  V30 40 1 16 60
M  V30 41 1 17 18
M  V30 42 1 17 20
M  V30 43 1 17 61
M  V30 44 1 18 19
M  V30 45 1 18 22
M  V30 46 1 18 62
M  V30 47 1 19 20
M  V30 48 2 19 21
M  V30 49 1 22 23
M  V30 50 1 22 24
M  V30 51 1 22 63
M  V30 52 1 23 64
M  V30 53 1 23 65
M  V30 54 1 23 66
M  V30 55 1 24 67
M  V30 56 1 25 26
M  V30 57 1 26 27
M  V30 58 1 26 68
M  V30 59 1 26 69
M  V30 60 1 27 28
M  V30 61 1 27 70
M  V30 62 1 27 71
M  V30 63 3 28 29
M  V30 64 1 29 72
M  V30 65 1 32 33
M  V30 66 1 32 35
M  V30 67 1 33 34
M  V30 68 2 33 39
M  V30 69 1 34 35
M  V30 70 1 34 36
M  V30 71 1 34 73
M  V30 72 1 35 74
M  V30 73 1 36 37
M  V30 74 1 36 38
M  V30 75 1 36 75
M  V30 76 1 37 76
M  V30 77 1 37 77
M  V30 78 1 37 78
M  V30 79 1 38 79
M  V30 80 1 40 41
M  V30 81 1 41 42
M  V30 82 1 41 80
M  V30 83 1 41 81
M  V30 84 1 42 43
M  V30 85 1 42 82
M  V30 86 1 42 83
M  V30 87 3 43 44
M  V30 88 1 44 84
M  V30 END BOND
M  V30 END CTAB
M  END
> <s_m_entry_id>
125

> <i_f3d_flags>
0

> <r_lp_tautomer_probability>
1

> <r_epik_Ionization_Penalty>
  0.0002

> <r_epik_State_Penalty>
  0.0000

> <i_epik_Tot_Q>
0

> <r_i_docking_score>
-5.9236842459127

> <r_i_glide_gscore>
-5.9236842459127

> <r_i_glide_emodel>
-60.3164919450779

> <s_m_subgroup_title>
nsp13-core1_lib_top-500_pv

> <s_m_subgroupid>
nsp13-core1_lib_top-500_pv

> <b_m_subgroup_collapsed>
0

$$$$
Core_1_EN300-41424_EN300-41424
                    3D
 Schrodinger Suite 2023-1.
  0  0  0     0  0            999 V3000
M  V30 BEGIN CTAB
M  V30 COUNTS 38 41 0 0 0
M  V30 BEGIN ATOM
M  V30 1 C  -40.3652 36.2776 -0.9029 0
M  V30 2 C  -39.6135 37.6008 -1.0393 0
M  V30 3 N  -39.5307 37.8848 -2.4737 0
M  V30 4 C  -40.3276 36.9127 -3.2226 0
M  V30 5 C  -41.1889 36.1881 -2.1801 0 CFG=1
M  V30 6 N  -41.4897 34.8033 -2.5354 0
M  V30 7 C  -42.6048 34.4050 -3.1638 0
M  V30 8 C  -42.7724 32.9523 -3.3419 0
M  V30 9 C  -42.1876 31.8944 -2.6432 0
M  V30 10 C  -42.7506 30.8179 -3.2559 0
M  V30 11 C  -43.5877 31.1906 -4.1878 0
M  V30 12 C  -44.1591 30.0551 -4.8104 0
M  V30 13 C  -43.5514 28.9889 -4.1524 0
M  V30 14 N  -42.6747 29.4620 -3.1566 0
M  V30 15 O  -43.6832 32.5249 -4.3158 0
M  V30 16 O  -43.4490 35.1808 -3.6091 0
M  V30 17 C  -38.7507 38.8799 -2.9598 0
M  V30 18 C  -38.6703 39.1066 -4.4465 0
M  V30 19 C  -39.8249 39.4419 -5.2208 0
M  V30 20 C  -39.3106 39.6590 -6.4658 0
M  V30 21 N  -37.9516 39.4864 -6.4089 0
M  V30 22 N  -37.5498 39.1487 -5.1669 0
M  V30 23 O  -39.9241 40.0063 -7.6104 0 CHG=-1
M  V30 24 O  -38.0624 39.5823 -2.2160 0
M  V30 25 H  -40.9781 36.2327 -0.0014 0
M  V30 26 H  -39.6442 35.4597 -0.8583 0
M  V30 27 H  -40.1674 38.4053 -0.5531 0
M  V30 28 H  -38.6265 37.5431 -0.5767 0
M  V30 29 H  -39.6482 36.2252 -3.7295 0
M  V30 30 H  -40.9610 37.3742 -3.9806 0
M  V30 31 H  -42.1100 36.7552 -2.0273 0
M  V30 32 H  -40.8336 34.0981 -2.2363 0
M  V30 33 H  -41.4693 31.9195 -1.8357 0
M  V30 34 H  -44.8778 30.0070 -5.6143 0
M  V30 35 H  -43.6666 27.9250 -4.2993 0
M  V30 36 H  -42.1269 28.9112 -2.5068 0
M  V30 37 H  -40.8577 39.5158 -4.9163 0
M  V30 38 H  -37.2886 39.6912 -7.1491 0
M  V30 END ATOM
M  V30 BEGIN BOND
M  V30 1 1 1 2
M  V30 2 1 1 5
M  V30 3 1 1 25
M  V30 4 1 1 26
M  V30 5 1 2 3
M  V30 6 1 2 27
M  V30 7 1 2 28
M  V30 8 1 3 4
M  V30 9 1 3 17
M  V30 10 1 4 5
M  V30 11 1 4 29
M  V30 12 1 4 30
M  V30 13 1 5 6
M  V30 14 1 5 31
M  V30 15 1 6 7
M  V30 16 1 6 32
M  V30 17 1 7 8
M  V30 18 2 7 16
M  V30 19 2 8 9
M  V30 20 1 8 15
M  V30 21 1 9 10
M  V30 22 1 9 33
M  V30 23 2 10 11
M  V30 24 1 10 14
M  V30 25 1 11 12
M  V30 26 1 11 15
M  V30 27 2 12 13
M  V30 28 1 12 34
M  V30 29 1 13 14
M  V30 30 1 13 35
M  V30 31 1 14 36
M  V30 32 2 17 24
M  V30 33 1 17 18
M  V30 34 1 18 19
M  V30 35 2 18 22
M  V30 36 1 19 37
M  V30 37 2 19 20
M  V30 38 1 20 21
M  V30 39 1 20 23
M  V30 40 1 21 22
M  V30 41 1 21 38
M  V30 END BOND
M  V30 END CTAB
M  END
> <s_m_entry_id>
126

> <i_f3d_flags>
0

> <r_lp_tautomer_probability>
0.994950157553978

> <r_epik_Ionization_Penalty>
  0.0007

> <r_epik_State_Penalty>
  0.0208

> <i_epik_Tot_Q>
-1

> <r_i_docking_score>
-5.91780007698751

> <r_i_glide_gscore>
-5.93860007698752

> <r_i_glide_emodel>
-50.8268342561986

> <s_m_subgroup_title>
nsp13-core1_lib_top-500_pv

> <s_m_subgroupid>
nsp13-core1_lib_top-500_pv

> <b_m_subgroup_collapsed>
0

$$$$
Core_1_EN300-624154_EN300-624154
                    3D
 Schrodinger Suite 2023-1.
  0  0  0     0  0            999 V3000
M  V30 BEGIN CTAB
M  V30 COUNTS 48 51 0 0 0
M  V30 BEGIN ATOM
M  V30 1 C  -40.0114 36.9338 -1.5566 0
M  V30 2 C  -40.4324 35.6911 -0.7769 0
M  V30 3 N  -40.9975 34.7650 -1.7578 0
M  V30 4 C  -40.7462 35.2523 -3.1169 0
M  V30 5 C  -39.7622 36.4168 -2.9713 0 CFG=1
M  V30 6 N  -39.9513 37.4233 -4.0098 0
M  V30 7 C  -39.2481 38.5592 -4.1350 0
M  V30 8 C  -39.6038 39.4110 -5.3157 0
M  V30 9 C  -38.6075 39.7802 -6.2557 0
M  V30 10 C  -38.9527 40.5858 -7.3652 0
M  V30 11 C  -40.2899 41.0107 -7.5196 0
M  V30 12 N  -41.2014 40.6566 -6.5880 0 CHG=1
M  V30 13 C  -42.6071 41.0307 -6.6273 0
M  V30 14 C  -43.1712 40.2928 -5.4029 0
M  V30 15 N  -42.0311 39.7474 -4.6832 0
M  V30 16 C  -40.9169 39.9088 -5.5115 0
M  V30 17 O  -38.3507 38.8976 -3.3675 0
M  V30 18 C  -41.5514 33.5851 -1.3915 0
M  V30 19 C  -42.1596 32.8288 -2.4768 0
M  V30 20 C  -42.4050 31.5111 -2.3494 0
M  V30 21 C  -43.0325 30.6625 -3.3104 0
M  V30 22 C  -43.7376 30.9262 -4.4541 0
M  V30 23 C  -44.0769 29.6810 -5.0638 0
M  V30 24 C  -43.5507 28.6849 -4.2911 0
M  V30 25 N  -42.9311 29.2900 -3.2143 0
M  V30 26 O  -41.5534 33.2174 -0.2160 0
M  V30 27 H  -40.8285 37.6585 -1.5553 0
M  V30 28 H  -39.1354 37.4229 -1.1240 0
M  V30 29 H  -41.1443 35.9390 0.0104 0
M  V30 30 H  -39.5606 35.2270 -0.3080 0
M  V30 31 H  -40.3333 34.4754 -3.7622 0
M  V30 32 H  -41.6902 35.5878 -3.5469 0
M  V30 33 H  -38.7511 36.0196 -3.0319 0
M  V30 34 H  -40.6239 37.1999 -4.7396 0
M  V30 35 H  -37.5850 39.4524 -6.1272 0
M  V30 36 H  -38.1983 40.8739 -8.0857 0
M  V30 37 H  -40.6452 41.6254 -8.3374 0
M  V30 38 H  -42.6609 42.1171 -6.5336 0
M  V30 39 H  -43.0343 40.6946 -7.5735 0
M  V30 40 H  -43.7307 40.9715 -4.7607 0
M  V30 41 H  -43.8387 39.4849 -5.6985 0
M  V30 42 H  -42.4392 33.3196 -3.3979 0
M  V30 43 H  -42.1242 31.0231 -1.4250 0
M  V30 44 H  -43.9774 31.9125 -4.8211 0
M  V30 45 H  -44.6233 29.5335 -5.9835 0
M  V30 46 H  -43.5549 27.6097 -4.4109 0
M  V30 47 H  -42.4502 28.7956 -2.4698 0
M  V30 48 H  -42.1183 38.9382 -4.0840 0
M  V30 END ATOM
M  V30 BEGIN BOND
M  V30 1 1 1 2
M  V30 2 1 1 5
M  V30 3 1 1 27
M  V30 4 1 1 28
M  V30 5 1 2 3
M  V30 6 1 2 29
M  V30 7 1 2 30
M  V30 8 1 3 4
M  V30 9 1 3 18
M  V30 10 1 4 5
M  V30 11 1 4 31
M  V30 12 1 4 32
M  V30 13 1 5 6
M  V30 14 1 5 33
M  V30 15 1 6 7
M  V30 16 1 6 34
M  V30 17 1 7 8
M  V30 18 2 7 17
M  V30 19 2 8 9
M  V30 20 1 8 16
M  V30 21 1 9 10
M  V30 22 1 9 35
M  V30 23 2 10 11
M  V30 24 1 10 36
M  V30 25 1 11 12
M  V30 26 1 11 37
M  V30 27 1 12 13
M  V30 28 2 12 16
M  V30 29 1 13 14
M  V30 30 1 13 38
M  V30 31 1 13 39
M  V30 32 1 14 15
M  V30 33 1 14 40
M  V30 34 1 14 41
M  V30 35 1 15 16
M  V30 36 1 15 48
M  V30 37 1 18 19
M  V30 38 2 18 26
M  V30 39 2 19 20 CFG=2
M  V30 40 1 19 42
M  V30 41 1 20 21
M  V30 42 1 20 43
M  V30 43 2 21 22
M  V30 44 1 21 25
M  V30 45 1 22 23
M  V30 46 1 22 44
M  V30 47 2 23 24
M  V30 48 1 23 45
M  V30 49 1 24 25
M  V30 50 1 24 46
M  V30 51 1 25 47
M  V30 END BOND
M  V30 END CTAB
M  END
> <s_m_entry_id>
129

> <i_f3d_flags>
0

> <r_lp_tautomer_probability>
1

> <r_epik_Ionization_Penalty>
  0.0000

> <r_epik_State_Penalty>
  0.0000

> <i_epik_Tot_Q>
1

> <r_i_docking_score>
-5.91459748390678

> <r_i_glide_gscore>
-5.91459748390678

> <r_i_glide_emodel>
-51.9270256453662

> <s_m_subgroup_title>
nsp13-core1_lib_top-500_pv

> <s_m_subgroupid>
nsp13-core1_lib_top-500_pv

> <b_m_subgroup_collapsed>
0

$$$$
Core_1_EN300-754603_EN300-754603
                    3D
 Schrodinger Suite 2023-1.
  0  0  0     0  0            999 V3000
M  V30 BEGIN CTAB
M  V30 COUNTS 44 47 0 0 0
M  V30 BEGIN ATOM
M  V30 1 C  -39.9744 34.9302 -3.5947 0
M  V30 2 C  -39.7266 36.4332 -3.5938 0
M  V30 3 N  -40.9002 37.0155 -2.9408 0
M  V30 4 C  -41.6726 35.9848 -2.2427 0
M  V30 5 C  -40.8257 34.7047 -2.3484 0 CFG=1
M  V30 6 N  -41.5512 33.4293 -2.3565 0
M  V30 7 C  -42.5219 33.0115 -3.1865 0
M  V30 8 C  -42.8549 31.5687 -3.1450 0
M  V30 9 C  -43.4727 30.7554 -4.1450 0
M  V30 10 C  -43.5303 29.4716 -3.6785 0
M  V30 11 N  -42.9901 29.4838 -2.4104 0
M  V30 12 C  -42.5987 30.7600 -2.0647 0
M  V30 13 O  -43.0609 33.7487 -4.0100 0
M  V30 14 C  -41.3063 38.2984 -3.0584 0
M  V30 15 C  -40.4101 39.2295 -3.8233 0
M  V30 16 C  -40.8897 39.8836 -5.0006 0
M  V30 17 C  -39.7948 40.5932 -5.3828 0
M  V30 18 N  -38.7821 40.4354 -4.4758 0
M  V30 19 C  -37.4522 41.0216 -4.5173 0
M  V30 20 C  -37.4014 42.2865 -5.4117 0
M  V30 21 N  -37.9512 42.0003 -6.7444 0 CFG=2
M  V30 22 S  -39.6319 41.6294 -6.8063 0
M  V30 23 O  -39.8800 40.7973 -7.9940 0
M  V30 24 O  -40.3954 42.8579 -6.5392 0
M  V30 25 N  -39.1571 39.5729 -3.5071 0
M  V30 26 O  -42.3719 38.7109 -2.6012 0
M  V30 27 H  -39.0548 34.3447 -3.6096 0
M  V30 28 H  -40.5476 34.6835 -4.4867 0
M  V30 29 H  -38.8386 36.6753 -3.0083 0
M  V30 30 H  -39.5732 36.8008 -4.6107 0
M  V30 31 H  -42.6423 35.8883 -2.7302 0
M  V30 32 H  -41.8533 36.2588 -1.2019 0
M  V30 33 H  -40.1548 34.6846 -1.4883 0
M  V30 34 H  -41.1911 32.7295 -1.7250 0
M  V30 35 H  -43.8105 31.0758 -5.1206 0
M  V30 36 H  -43.8893 28.5571 -4.1273 0
M  V30 37 H  -42.8579 28.6605 -1.8214 0
M  V30 38 H  -42.1585 30.9558 -1.0960 0
M  V30 39 H  -41.8491 39.8065 -5.4911 0
M  V30 40 H  -37.1444 41.2670 -3.5000 0
M  V30 41 H  -36.7603 40.2630 -4.8857 0
M  V30 42 H  -37.9707 43.0978 -4.9564 0
M  V30 43 H  -36.3734 42.6344 -5.5139 0
M  V30 44 H  -37.3867 41.2960 -7.2277 0
M  V30 END ATOM
M  V30 BEGIN BOND
M  V30 1 1 1 2
M  V30 2 1 1 5
M  V30 3 1 1 27
M  V30 4 1 1 28
M  V30 5 1 2 3
M  V30 6 1 2 29
M  V30 7 1 2 30
M  V30 8 1 3 4
M  V30 9 1 3 14
M  V30 10 1 4 5
M  V30 11 1 4 31
M  V30 12 1 4 32
M  V30 13 1 5 6
M  V30 14 1 5 33
M  V30 15 1 6 7
M  V30 16 1 6 34
M  V30 17 1 7 8
M  V30 18 2 7 13
M  V30 19 1 8 9
M  V30 20 2 8 12
M  V30 21 2 9 10
M  V30 22 1 9 35
M  V30 23 1 10 11
M  V30 24 1 10 36
M  V30 25 1 11 12
M  V30 26 1 11 37
M  V30 27 1 12 38
M  V30 28 1 14 15
M  V30 29 2 14 26
M  V30 30 1 15 16
M  V30 31 2 15 25
M  V30 32 2 16 17
M  V30 33 1 16 39
M  V30 34 1 17 18
M  V30 35 1 17 22
M  V30 36 1 18 19
M  V30 37 1 18 25
M  V30 38 1 19 20
M  V30 39 1 19 40
M  V30 40 1 19 41
M  V30 41 1 20 21
M  V30 42 1 20 42
M  V30 43 1 20 43
M  V30 44 1 21 22
M  V30 45 1 21 44
M  V30 46 2 22 23
M  V30 47 2 22 24
M  V30 END BOND
M  V30 END CTAB
M  END
> <s_m_entry_id>
130

> <i_f3d_flags>
0

> <r_lp_tautomer_probability>
1

> <r_epik_Ionization_Penalty>
  0.0022

> <r_epik_State_Penalty>
  0.0022

> <i_epik_Tot_Q>
0

> <r_i_docking_score>
-5.91172698396359

> <r_i_glide_gscore>
-5.9139269839636

> <r_i_glide_emodel>
-51.9121450022083

> <s_m_subgroup_title>
nsp13-core1_lib_top-500_pv

> <s_m_subgroupid>
nsp13-core1_lib_top-500_pv

> <b_m_subgroup_collapsed>
0

$$$$
Core_1_EN300-113123_EN300-113123
                    3D
 Schrodinger Suite 2023-1.
  0  0  0     0  0            999 V3000
M  V30 BEGIN CTAB
M  V30 COUNTS 44 47 0 0 0
M  V30 BEGIN ATOM
M  V30 1 C  -40.6494 35.1642 -0.8447 0
M  V30 2 C  -39.8633 36.4602 -1.0283 0
M  V30 3 N  -39.7694 36.6949 -2.4675 0
M  V30 4 C  -40.5108 35.6694 -3.2068 0
M  V30 5 C  -41.3896 34.9635 -2.1639 0 CFG=1
M  V30 6 N  -41.5921 33.5426 -2.4323 0
M  V30 7 C  -42.5536 33.0268 -3.2136 0
M  V30 8 C  -42.7053 31.5563 -3.1924 0
M  V30 9 C  -43.2019 30.6701 -4.1970 0
M  V30 10 C  -43.1558 29.3956 -3.7034 0
M  V30 11 N  -42.6801 29.4849 -2.4138 0
M  V30 12 C  -42.4138 30.7972 -2.0876 0
M  V30 13 O  -43.2555 33.7223 -3.9494 0
M  V30 14 C  -39.1552 37.7872 -2.9757 0
M  V30 15 C  -39.1602 38.0310 -4.4976 0 CFG=1
M  V30 16 C  -39.9635 39.2894 -4.8837 0
M  V30 17 C  -38.6528 40.0049 -5.2201 0 CFG=1
M  V30 18 C  -37.8870 38.6910 -5.0713 0
M  V30 19 C  -38.5590 40.7308 -6.5428 0
M  V30 20 N  -38.1686 41.9740 -6.2696 0
M  V30 21 C  -37.9758 42.1853 -4.9603 0
M  V30 22 N  -38.2567 41.0516 -4.3011 0
M  V30 23 O  -37.6026 43.2379 -4.4519 0
M  V30 24 O  -38.7862 40.2391 -7.6457 0
M  V30 25 O  -38.5912 38.6057 -2.2478 0
M  V30 26 H  -39.9514 34.3446 -0.6709 0
M  V30 27 H  -41.3251 35.2037 0.0109 0
M  V30 28 H  -38.8758 36.3911 -0.5698 0
M  V30 29 H  -40.3925 37.2922 -0.5611 0
M  V30 30 H  -41.1293 36.0871 -4.0010 0
M  V30 31 H  -39.7951 34.9802 -3.6567 0
M  V30 32 H  -42.3496 35.4801 -2.1013 0
M  V30 33 H  -41.0281 32.8933 -1.9047 0
M  V30 34 H  -43.5433 30.9392 -5.1860 0
M  V30 35 H  -43.4175 28.4436 -4.1420 0
M  V30 36 H  -42.5345 28.6948 -1.7870 0
M  V30 37 H  -42.0458 31.0579 -1.1044 0
M  V30 38 H  -39.4391 37.1564 -5.0846 0
M  V30 39 H  -40.5261 39.7479 -4.0672 0
M  V30 40 H  -40.6074 39.1091 -5.7463 0
M  V30 41 H  -37.5816 38.2778 -6.0319 0
M  V30 42 H  -37.0368 38.7465 -4.3922 0
M  V30 43 H  -38.0110 42.6759 -6.9757 0
M  V30 44 H  -38.1823 40.9198 -3.3015 0
M  V30 END ATOM
M  V30 BEGIN BOND
M  V30 1 1 1 2
M  V30 2 1 1 5
M  V30 3 1 1 26
M  V30 4 1 1 27
M  V30 5 1 2 3
M  V30 6 1 2 28
M  V30 7 1 2 29
M  V30 8 1 3 4
M  V30 9 1 3 14
M  V30 10 1 4 5
M  V30 11 1 4 30
M  V30 12 1 4 31
M  V30 13 1 5 6
M  V30 14 1 5 32
M  V30 15 1 6 7
M  V30 16 1 6 33
M  V30 17 1 7 8
M  V30 18 2 7 13
M  V30 19 1 8 9
M  V30 20 2 8 12
M  V30 21 2 9 10
M  V30 22 1 9 34
M  V30 23 1 10 11
M  V30 24 1 10 35
M  V30 25 1 11 12
M  V30 26 1 11 36
M  V30 27 1 12 37
M  V30 28 1 14 15
M  V30 29 2 14 25
M  V30 30 1 15 16
M  V30 31 1 15 18
M  V30 32 1 15 38
M  V30 33 1 16 17
M  V30 34 1 16 39
M  V30 35 1 16 40
M  V30 36 1 17 18
M  V30 37 1 17 19
M  V30 38 1 17 22
M  V30 39 1 18 41
M  V30 40 1 18 42
M  V30 41 1 19 20
M  V30 42 2 19 24
M  V30 43 1 20 21
M  V30 44 1 20 43
M  V30 45 1 21 22
M  V30 46 2 21 23
M  V30 47 1 22 44
M  V30 END BOND
M  V30 END CTAB
M  END
> <s_m_entry_id>
132

> <i_f3d_flags>
0

> <r_lp_tautomer_probability>
0.99999999978137

> <r_epik_Ionization_Penalty>
  0.0161

> <r_epik_State_Penalty>
  0.0160

> <i_epik_Tot_Q>
0

> <r_i_docking_score>
-5.90778732696869

> <r_i_glide_gscore>
-5.92378732696869

> <r_i_glide_emodel>
-50.4930498095296

> <s_m_subgroup_title>
nsp13-core1_lib_top-500_pv

> <s_m_subgroupid>
nsp13-core1_lib_top-500_pv

> <b_m_subgroup_collapsed>
0

$$$$
Core_1_EN300-45752251_EN300-45752251
                    3D
 Schrodinger Suite 2023-1.
  0  0  0     0  0            999 V3000
M  V30 BEGIN CTAB
M  V30 COUNTS 42 44 0 0 0
M  V30 BEGIN ATOM
M  V30 1 C  -40.2904 35.1535 -1.7701 0
M  V30 2 C  -40.1435 36.6576 -1.9969 0
M  V30 3 N  -41.4739 37.1537 -2.3486 0
M  V30 4 C  -42.4877 36.1197 -2.1405 0
M  V30 5 C  -41.7694 34.9539 -1.4355 0 CFG=1
M  V30 6 N  -42.2682 33.6108 -1.7538 0
M  V30 7 C  -42.3667 33.0301 -2.9632 0
M  V30 8 C  -42.7677 31.6095 -3.0033 0
M  V30 9 C  -43.3754 30.8676 -4.0616 0
M  V30 10 C  -43.4563 29.5567 -3.6749 0
M  V30 11 N  -42.9144 29.4840 -2.4100 0
M  V30 12 C  -42.4987 30.7281 -1.9875 0
M  V30 13 O  -42.1641 33.6387 -4.0102 0
M  V30 14 C  -41.7693 38.3863 -2.8156 0
M  V30 15 C  -40.6769 39.4763 -2.8543 0 CFG=1
M  V30 16 C  -40.4462 40.0783 -4.2623 0 CFG=1
M  V30 17 C  -39.3526 41.1702 -4.2790 0
M  V30 18 C  -38.1298 40.5488 -4.9674 0
M  V30 19 C  -38.7007 39.2994 -5.6107 0
M  V30 20 N  -39.9513 39.0847 -5.2020 0
M  V30 21 O  -38.0773 38.6079 -6.4102 0
M  V30 22 F  -41.0578 40.4583 -2.0352 0
M  V30 23 O  -42.9095 38.6833 -3.1725 0
M  V30 24 H  -40.0246 34.6367 -2.6929 0
M  V30 25 H  -39.6321 34.7873 -0.9816 0
M  V30 26 H  -39.4101 36.8539 -2.7800 0
M  V30 27 H  -39.8098 37.1466 -1.0804 0
M  V30 28 H  -43.3169 36.4893 -1.5348 0
M  V30 29 H  -42.8953 35.8491 -3.1135 0
M  V30 30 H  -41.8850 35.0968 -0.3583 0
M  V30 31 H  -42.5031 33.0308 -0.9610 0
M  V30 32 H  -43.6903 31.2527 -5.0200 0
M  V30 33 H  -43.8219 28.6759 -4.1813 0
M  V30 34 H  -42.7883 28.6267 -1.8718 0
M  V30 35 H  -42.0286 30.8516 -1.0201 0
M  V30 36 H  -39.7282 39.1291 -2.4486 0
M  V30 37 H  -41.3824 40.4910 -4.6447 0
M  V30 38 H  -39.1058 41.5436 -3.2840 0
M  V30 39 H  -39.6952 42.0271 -4.8630 0
M  V30 40 H  -37.3606 40.2667 -4.2463 0
M  V30 41 H  -37.6869 41.2141 -5.7099 0
M  V30 42 H  -40.5351 38.3234 -5.5469 0
M  V30 END ATOM
M  V30 BEGIN BOND
M  V30 1 1 1 2
M  V30 2 1 1 5
M  V30 3 1 1 24
M  V30 4 1 1 25
M  V30 5 1 2 3
M  V30 6 1 2 26
M  V30 7 1 2 27
M  V30 8 1 3 4
M  V30 9 1 3 14
M  V30 10 1 4 5
M  V30 11 1 4 28
M  V30 12 1 4 29
M  V30 13 1 5 6
M  V30 14 1 5 30
M  V30 15 1 6 7
M  V30 16 1 6 31
M  V30 17 1 7 8
M  V30 18 2 7 13
M  V30 19 1 8 9
M  V30 20 2 8 12
M  V30 21 2 9 10
M  V30 22 1 9 32
M  V30 23 1 10 11
M  V30 24 1 10 33
M  V30 25 1 11 12
M  V30 26 1 11 34
M  V30 27 1 12 35
M  V30 28 1 14 15
M  V30 29 2 14 23
M  V30 30 1 15 16
M  V30 31 1 15 22
M  V30 32 1 15 36
M  V30 33 1 16 17
M  V30 34 1 16 20
M  V30 35 1 16 37
M  V30 36 1 17 18
M  V30 37 1 17 38
M  V30 38 1 17 39
M  V30 39 1 18 19
M  V30 40 1 18 40
M  V30 41 1 18 41
M  V30 42 1 19 20
M  V30 43 2 19 21
M  V30 44 1 20 42
M  V30 END BOND
M  V30 END CTAB
M  END
> <s_m_entry_id>
133

> <i_f3d_flags>
0

> <r_lp_tautomer_probability>
1

> <r_epik_Ionization_Penalty>
  0.0000

> <r_epik_State_Penalty>
  0.0000

> <i_epik_Tot_Q>
0

> <r_i_docking_score>
-5.9036565174281

> <r_i_glide_gscore>
-5.9036565174281

> <r_i_glide_emodel>
-48.0040724147795

> <s_m_subgroup_title>
nsp13-core1_lib_top-500_pv

> <s_m_subgroupid>
nsp13-core1_lib_top-500_pv

> <b_m_subgroup_collapsed>
0

$$$$
Core_1_EN300-783124_EN300-783124
                    3D
 Schrodinger Suite 2023-1.
  0  0  0     0  0            999 V3000
M  V30 BEGIN CTAB
M  V30 COUNTS 45 48 0 0 0
M  V30 BEGIN ATOM
M  V30 1 C  -37.4631 39.4363 -5.0701 0
M  V30 2 C  -37.6023 38.7358 -6.4102 0
M  V30 3 O  -38.5792 39.4841 -7.1256 0
M  V30 4 C  -39.3102 40.3162 -6.2287 0
M  V30 5 C  -38.8749 39.9430 -4.8053 0 CFG=1
M  V30 6 C  -39.8268 38.9112 -4.1405 0 CFG=1
M  V30 7 C  -39.3893 38.4576 -2.7344 0
M  V30 8 N  -39.9274 37.3372 -2.2076 0
M  V30 9 C  -39.6387 36.8890 -0.8470 0
M  V30 10 C  -40.3842 35.5667 -0.6600 0
M  V30 11 C  -41.4711 35.5686 -1.7306 0 CFG=1
M  V30 12 C  -40.9002 36.4545 -2.8501 0
M  V30 13 N  -41.7735 34.2097 -2.1693 0
M  V30 14 C  -42.7379 33.8699 -3.0359 0
M  V30 15 C  -42.8754 32.4305 -3.3113 0
M  V30 16 C  -42.3585 31.3375 -2.6154 0
M  V30 17 C  -42.8462 30.3013 -3.3468 0
M  V30 18 C  -43.5677 30.7235 -4.3513 0
M  V30 19 C  -44.0642 29.6255 -5.0943 0
M  V30 20 C  -43.5509 28.5250 -4.4114 0
M  V30 21 N  -42.7955 28.9436 -3.2960 0
M  V30 22 O  -43.6583 32.0632 -4.4134 0
M  V30 23 O  -43.4571 34.6864 -3.6067 0
M  V30 24 O  -38.5714 39.1326 -2.1062 0
M  V30 25 F  -41.0347 39.4706 -4.0242 0
M  V30 26 H  -37.0540 38.7862 -4.2975 0
M  V30 27 H  -36.7884 40.2879 -5.1727 0
M  V30 28 H  -37.9762 37.7202 -6.2804 0
M  V30 29 H  -36.6557 38.6821 -6.9511 0
M  V30 30 H  -39.0408 41.3530 -6.4358 0
M  V30 31 H  -40.3843 40.2171 -6.3919 0
M  V30 32 H  -38.8465 40.8354 -4.1785 0
M  V30 33 H  -39.9496 38.0457 -4.7922 0
M  V30 34 H  -38.5650 36.7688 -0.6796 0
M  V30 35 H  -40.0078 37.6365 -0.1409 0
M  V30 36 H  -39.6856 34.7463 -0.8266 0
M  V30 37 H  -40.7869 35.4544 0.3477 0
M  V30 38 H  -42.3691 36.0394 -1.3248 0
M  V30 39 H  -41.6981 37.0072 -3.3492 0
M  V30 40 H  -40.3821 35.8588 -3.6036 0
M  V30 41 H  -41.2369 33.4661 -1.7483 0
M  V30 42 H  -41.7460 31.3133 -1.7251 0
M  V30 43 H  -44.6841 29.6169 -5.9802 0
M  V30 44 H  -43.6623 27.4697 -4.6143 0
M  V30 45 H  -42.3500 28.3629 -2.5919 0
M  V30 END ATOM
M  V30 BEGIN BOND
M  V30 1 1 1 2
M  V30 2 1 1 5
M  V30 3 1 1 26
M  V30 4 1 1 27
M  V30 5 1 2 3
M  V30 6 1 2 28
M  V30 7 1 2 29
M  V30 8 1 3 4
M  V30 9 1 4 5
M  V30 10 1 4 30
M  V30 11 1 4 31
M  V30 12 1 5 6
M  V30 13 1 5 32
M  V30 14 1 6 7
M  V30 15 1 6 25
M  V30 16 1 6 33
M  V30 17 1 7 8
M  V30 18 2 7 24
M  V30 19 1 8 9
M  V30 20 1 8 12
M  V30 21 1 9 10
M  V30 22 1 9 34
M  V30 23 1 9 35
M  V30 24 1 10 11
M  V30 25 1 10 36
M  V30 26 1 10 37
M  V30 27 1 11 12
M  V30 28 1 11 13
M  V30 29 1 11 38
M  V30 30 1 12 39
M  V30 31 1 12 40
M  V30 32 1 13 14
M  V30 33 1 13 41
M  V30 34 1 14 15
M  V30 35 2 14 23
M  V30 36 2 15 16
M  V30 37 1 15 22
M  V30 38 1 16 17
M  V30 39 1 16 42
M  V30 40 2 17 18
M  V30 41 1 17 21
M  V30 42 1 18 19
M  V30 43 1 18 22
M  V30 44 2 19 20
M  V30 45 1 19 43
M  V30 46 1 20 21
M  V30 47 1 20 44
M  V30 48 1 21 45
M  V30 END BOND
M  V30 END CTAB
M  END
> <s_m_entry_id>
134

> <i_f3d_flags>
0

> <r_lp_tautomer_probability>
1

> <r_epik_Ionization_Penalty>
  0.0000

> <r_epik_State_Penalty>
  0.0000

> <i_epik_Tot_Q>
0

> <r_i_docking_score>
-5.90018091027292

> <r_i_glide_gscore>
-5.90018091027292

> <r_i_glide_emodel>
-51.5115338921726

> <s_m_subgroup_title>
nsp13-core1_lib_top-500_pv

> <s_m_subgroupid>
nsp13-core1_lib_top-500_pv

> <b_m_subgroup_collapsed>
0

$$$$
Core_1_EN300-2958816_EN300-2958816
                    3D
 Schrodinger Suite 2023-1.
  0  0  0     0  0            999 V3000
M  V30 BEGIN CTAB
M  V30 COUNTS 40 43 0 0 0
M  V30 BEGIN ATOM
M  V30 1 C  -41.7042 39.7795 -4.4575 0
M  V30 2 C  -40.3507 39.5329 -5.0582 0
M  V30 3 C  -40.0279 39.7897 -6.4286 0
M  V30 4 N  -38.7867 39.5775 -6.8099 0
M  V30 5 S  -37.8988 39.0842 -5.4771 0
M  V30 6 C  -39.2479 39.0714 -4.3871 0
M  V30 7 C  -38.9717 38.6726 -2.9935 0
M  V30 8 N  -39.5839 37.5765 -2.4892 0
M  V30 9 C  -39.4433 37.1876 -1.0856 0
M  V30 10 C  -40.1264 35.8277 -0.9472 0
M  V30 11 C  -41.1039 35.7794 -2.1133 0 CFG=1
M  V30 12 C  -40.3921 36.5893 -3.2073 0
M  V30 13 N  -41.4270 34.4088 -2.5016 0
M  V30 14 C  -42.5471 34.0541 -3.1527 0
M  V30 15 C  -42.7662 32.6086 -3.3482 0
M  V30 16 C  -42.3161 31.5228 -2.5953 0
M  V30 17 C  -42.8423 30.4710 -3.2832 0
M  V30 18 C  -43.5486 30.8843 -4.3036 0
M  V30 19 C  -44.0517 29.7787 -5.0277 0
M  V30 20 C  -43.5515 28.6839 -4.3263 0
M  V30 21 N  -42.8062 29.1109 -3.2103 0
M  V30 22 O  -43.5811 32.2250 -4.4194 0
M  V30 23 O  -43.3496 34.8692 -3.6091 0
M  V30 24 O  -38.1920 39.3517 -2.3247 0
M  V30 25 H  -42.4136 40.1297 -5.2082 0
M  V30 26 H  -42.1294 38.8813 -4.0141 0
M  V30 27 H  -41.6543 40.5385 -3.6757 0
M  V30 28 H  -40.7252 40.1524 -7.1707 0
M  V30 29 H  -39.9434 37.9283 -0.4602 0
M  V30 30 H  -38.3975 37.1366 -0.7767 0
M  V30 31 H  -40.6135 35.6949 0.0198 0
M  V30 32 H  -39.3729 35.0482 -1.0502 0
M  V30 33 H  -42.0126 36.3070 -1.8175 0
M  V30 34 H  -39.7264 35.9561 -3.7958 0
M  V30 35 H  -41.1115 37.0296 -3.8901 0
M  V30 36 H  -40.8028 33.6784 -2.1936 0
M  V30 37 H  -41.6919 31.5125 -1.7148 0
M  V30 38 H  -44.6544 29.7659 -5.9248 0
M  V30 39 H  -43.6652 27.6282 -4.5216 0
M  V30 40 H  -42.3506 28.5357 -2.5084 0
M  V30 END ATOM
M  V30 BEGIN BOND
M  V30 1 1 1 2
M  V30 2 1 1 25
M  V30 3 1 1 26
M  V30 4 1 1 27
M  V30 5 1 2 3
M  V30 6 2 2 6
M  V30 7 2 3 4
M  V30 8 1 3 28
M  V30 9 1 4 5
M  V30 10 1 5 6
M  V30 11 1 6 7
M  V30 12 1 7 8
M  V30 13 2 7 24
M  V30 14 1 8 9
M  V30 15 1 8 12
M  V30 16 1 9 10
M  V30 17 1 9 29
M  V30 18 1 9 30
M  V30 19 1 10 11
M  V30 20 1 10 31
M  V30 21 1 10 32
M  V30 22 1 11 12
M  V30 23 1 11 13
M  V30 24 1 11 33
M  V30 25 1 12 34
M  V30 26 1 12 35
M  V30 27 1 13 14
M  V30 28 1 13 36
M  V30 29 1 14 15
M  V30 30 2 14 23
M  V30 31 2 15 16
M  V30 32 1 15 22
M  V30 33 1 16 17
M  V30 34 1 16 37
M  V30 35 2 17 18
M  V30 36 1 17 21
M  V30 37 1 18 19
M  V30 38 1 18 22
M  V30 39 2 19 20
M  V30 40 1 19 38
M  V30 41 1 20 21
M  V30 42 1 20 39
M  V30 43 1 21 40
M  V30 END BOND
M  V30 END CTAB
M  END
> <s_m_entry_id>
138

> <i_f3d_flags>
0

> <r_lp_tautomer_probability>
1

> <r_epik_Ionization_Penalty>
  0.0000

> <r_epik_State_Penalty>
  0.0000

> <i_epik_Tot_Q>
0

> <r_i_docking_score>
-5.89685393592231

> <r_i_glide_gscore>
-5.89685393592231

> <r_i_glide_emodel>
-51.5548508529006

> <s_m_subgroup_title>
nsp13-core1_lib_top-500_pv

> <s_m_subgroupid>
nsp13-core1_lib_top-500_pv

> <b_m_subgroup_collapsed>
0

$$$$
Core_1_EN300-111006_EN300-111006
                    3D
 Schrodinger Suite 2023-1.
  0  0  0     0  0            999 V3000
M  V30 BEGIN CTAB
M  V30 COUNTS 39 42 0 0 0
M  V30 BEGIN ATOM
M  V30 1 C  -40.2706 36.2116 -0.5534 0
M  V30 2 C  -39.5600 37.5590 -0.6704 0
M  V30 3 N  -39.5569 37.9004 -2.0931 0
M  V30 4 C  -40.3588 36.9333 -2.8495 0
M  V30 5 C  -41.1566 36.1524 -1.7925 0 CFG=1
M  V30 6 N  -41.4648 34.7785 -2.1780 0
M  V30 7 C  -42.4618 34.4239 -2.9995 0
M  V30 8 C  -42.6909 32.9754 -3.1703 0
M  V30 9 C  -42.2612 31.9018 -2.3871 0
M  V30 10 C  -42.7954 30.8420 -3.0512 0
M  V30 11 C  -43.4816 31.2391 -4.0895 0
M  V30 12 C  -44.0070 30.1235 -4.7821 0
M  V30 13 C  -43.5511 29.0419 -4.0348 0
M  V30 14 N  -42.7959 29.4851 -2.9302 0
M  V30 15 O  -43.4858 32.5740 -4.2505 0
M  V30 16 O  -43.1551 35.2366 -3.6090 0
M  V30 17 C  -38.8545 38.9521 -2.5790 0
M  V30 18 C  -38.8373 39.1729 -4.0647 0
M  V30 19 C  -40.0080 39.4854 -4.7864 0
M  V30 20 C  -39.8699 39.6286 -6.1795 0
M  V30 21 N  -38.6793 39.4839 -6.7973 0
M  V30 22 C  -37.6311 39.2336 -6.0105 0
M  V30 23 N  -37.6427 39.0834 -4.6892 0
M  V30 24 O  -38.1971 39.7006 -1.8532 0
M  V30 25 H  -40.8349 36.1119 0.3732 0
M  V30 26 H  -39.5278 35.4119 -0.5795 0
M  V30 27 H  -40.1027 38.3292 -0.1189 0
M  V30 28 H  -38.5468 37.5071 -0.2660 0
M  V30 29 H  -39.6822 36.2759 -3.4010 0
M  V30 30 H  -41.0298 37.4062 -3.5657 0
M  V30 31 H  -42.0831 36.6862 -1.5780 0
M  V30 32 H  -40.9362 34.0447 -1.7287 0
M  V30 33 H  -41.6532 31.9114 -1.4955 0
M  V30 34 H  -44.6007 30.0984 -5.6809 0
M  V30 35 H  -43.6920 27.9824 -4.1893 0
M  V30 36 H  -42.3521 28.9200 -2.2139 0
M  V30 37 H  -40.9710 39.5878 -4.3062 0
M  V30 38 H  -40.7228 39.8571 -6.8027 0
M  V30 39 H  -36.6794 39.0858 -6.4983 0
M  V30 END ATOM
M  V30 BEGIN BOND
M  V30 1 1 1 2
M  V30 2 1 1 5
M  V30 3 1 1 25
M  V30 4 1 1 26
M  V30 5 1 2 3
M  V30 6 1 2 27
M  V30 7 1 2 28
M  V30 8 1 3 4
M  V30 9 1 3 17
M  V30 10 1 4 5
M  V30 11 1 4 29
M  V30 12 1 4 30
M  V30 13 1 5 6
M  V30 14 1 5 31
M  V30 15 1 6 7
M  V30 16 1 6 32
M  V30 17 1 7 8
M  V30 18 2 7 16
M  V30 19 2 8 9
M  V30 20 1 8 15
M  V30 21 1 9 10
M  V30 22 1 9 33
M  V30 23 2 10 11
M  V30 24 1 10 14
M  V30 25 1 11 12
M  V30 26 1 11 15
M  V30 27 2 12 13
M  V30 28 1 12 34
M  V30 29 1 13 14
M  V30 30 1 13 35
M  V30 31 1 14 36
M  V30 32 1 17 18
M  V30 33 2 17 24
M  V30 34 2 18 19
M  V30 35 1 18 23
M  V30 36 1 19 20
M  V30 37 1 19 37
M  V30 38 2 20 21
M  V30 39 1 20 38
M  V30 40 1 21 22
M  V30 41 2 22 23
M  V30 42 1 22 39
M  V30 END BOND
M  V30 END CTAB
M  END
> <s_m_entry_id>
139

> <i_f3d_flags>
0

> <r_lp_tautomer_probability>
1

> <r_epik_Ionization_Penalty>
  0.0000

> <r_epik_State_Penalty>
  0.0000

> <i_epik_Tot_Q>
0

> <r_i_docking_score>
-5.89415196044588

> <r_i_glide_gscore>
-5.89415196044588

> <r_i_glide_emodel>
-52.3755641986991

> <s_m_subgroup_title>
nsp13-core1_lib_top-500_pv

> <s_m_subgroupid>
nsp13-core1_lib_top-500_pv

> <b_m_subgroup_collapsed>
0

$$$$
Core_1_EN300-43883_EN300-43883
                    3D
 Schrodinger Suite 2023-1.
  0  0  0     0  0            999 V3000
M  V30 BEGIN CTAB
M  V30 COUNTS 38 40 0 0 0
M  V30 BEGIN ATOM
M  V30 1 C  -42.9650 36.6884 -2.9206 0
M  V30 2 C  -43.7540 35.4252 -2.5941 0
M  V30 3 N  -42.8360 34.3085 -2.8065 0
M  V30 4 C  -41.4651 34.7859 -2.9903 0
M  V30 5 C  -41.5053 36.2948 -2.7079 0 CFG=1
M  V30 6 N  -40.6321 37.0360 -3.6081 0
M  V30 7 C  -39.5509 37.7443 -3.2456 0
M  V30 8 C  -38.8525 38.4862 -4.3454 0
M  V30 9 N  -37.8819 39.3873 -4.2028 0
M  V30 10 C  -37.6311 39.7071 -5.5056 0
M  V30 11 N  -38.3715 39.0730 -6.4102 0
M  V30 12 N  -39.1513 38.2882 -5.6360 0
M  V30 13 O  -39.1484 37.8175 -2.0842 0
M  V30 14 C  -43.2479 33.0244 -2.8215 0
M  V30 15 C  -42.2009 31.9124 -3.0081 0
M  V30 16 C  -42.7219 30.4842 -2.7303 0
M  V30 17 N  -43.4396 29.9000 -3.8514 0
M  V30 18 C  -42.9723 29.0285 -4.8091 0
M  V30 19 C  -44.0766 28.7506 -5.5613 0
M  V30 20 N  -45.1510 29.4848 -5.0632 0
M  V30 21 N  -44.7513 30.1679 -4.0383 0
M  V30 22 O  -44.4368 32.7320 -2.6949 0
M  V30 23 H  -43.1439 36.9555 -3.9642 0
M  V30 24 H  -43.2653 37.5402 -2.3090 0
M  V30 25 H  -44.6501 35.3476 -3.2098 0
M  V30 26 H  -44.0647 35.4293 -1.5485 0
M  V30 27 H  -40.7611 34.2935 -2.3169 0
M  V30 28 H  -41.1503 34.5785 -4.0142 0
M  V30 29 H  -41.2504 36.4645 -1.6596 0
M  V30 30 H  -40.9424 37.0837 -4.5765 0
M  V30 31 H  -36.8846 40.4314 -5.7955 0
M  V30 32 H  -41.3855 32.1020 -2.3102 0
M  V30 33 H  -41.7794 31.9808 -4.0096 0
M  V30 34 H  -43.3613 30.4587 -1.8468 0
M  V30 35 H  -41.8826 29.8290 -2.4989 0
M  V30 36 H  -41.9517 28.6833 -4.8554 0
M  V30 37 H  -44.1870 28.0943 -6.4103 0
M  V30 38 H  -39.8653 37.6736 -6.0106 0
M  V30 END ATOM
M  V30 BEGIN BOND
M  V30 1 1 1 2
M  V30 2 1 1 5
M  V30 3 1 1 23
M  V30 4 1 1 24
M  V30 5 1 2 3
M  V30 6 1 2 25
M  V30 7 1 2 26
M  V30 8 1 3 4
M  V30 9 1 3 14
M  V30 10 1 4 5
M  V30 11 1 4 27
M  V30 12 1 4 28
M  V30 13 1 5 6
M  V30 14 1 5 29
M  V30 15 1 6 7
M  V30 16 1 6 30
M  V30 17 1 7 8
M  V30 18 2 7 13
M  V30 19 2 8 9
M  V30 20 1 8 12
M  V30 21 1 9 10
M  V30 22 2 10 11
M  V30 23 1 10 31
M  V30 24 1 11 12
M  V30 25 1 12 38
M  V30 26 1 14 15
M  V30 27 2 14 22
M  V30 28 1 15 16
M  V30 29 1 15 32
M  V30 30 1 15 33
M  V30 31 1 16 17
M  V30 32 1 16 34
M  V30 33 1 16 35
M  V30 34 1 17 18
M  V30 35 1 17 21
M  V30 36 2 18 19
M  V30 37 1 18 36
M  V30 38 1 19 20
M  V30 39 1 19 37
M  V30 40 2 20 21
M  V30 END BOND
M  V30 END CTAB
M  END
> <s_m_entry_id>
140

> <i_f3d_flags>
0

> <r_lp_tautomer_probability>
0.948284485345604

> <r_epik_Ionization_Penalty>
  0.0209

> <r_epik_State_Penalty>
  0.1408

> <i_epik_Tot_Q>
0

> <r_i_docking_score>
-5.8916458948368

> <r_i_glide_gscore>
-6.0324458948368

> <r_i_glide_emodel>
-58.1185741401719

> <s_m_subgroup_title>
nsp13-core1_lib_top-500_pv

> <s_m_subgroupid>
nsp13-core1_lib_top-500_pv

> <b_m_subgroup_collapsed>
0

$$$$
Core_1_EN300-7846153_EN300-7846153
                    3D
 Schrodinger Suite 2023-1.
  0  0  0     0  0            999 V3000
M  V30 BEGIN CTAB
M  V30 COUNTS 47 50 0 0 0
M  V30 BEGIN ATOM
M  V30 1 C  -36.9922 39.8782 -2.1171 0
M  V30 2 C  -37.9373 39.7645 -3.3031 0
M  V30 3 C  -37.4478 39.5064 -4.5372 0
M  V30 4 C  -38.3515 39.4178 -5.6978 0
M  V30 5 C  -39.7637 39.7403 -5.4413 0
M  V30 6 C  -40.1562 39.9829 -4.1762 0
M  V30 7 N  -39.3162 39.9317 -3.0603 0
M  V30 8 C  -39.9340 39.9324 -1.7290 0
M  V30 9 C  -40.8424 38.7360 -1.3545 0
M  V30 10 N  -40.5992 37.4639 -1.7596 0
M  V30 11 C  -39.4811 36.9700 -2.5646 0
M  V30 12 C  -39.7121 35.4820 -2.7888 0
M  V30 13 C  -40.6469 35.0657 -1.6568 0 CFG=1
M  V30 14 C  -41.4332 36.3420 -1.3183 0
M  V30 15 N  -41.4557 33.8863 -1.9774 0
M  V30 16 C  -42.3753 33.7538 -2.9479 0
M  V30 17 C  -42.7934 32.3753 -3.2531 0
M  V30 18 C  -42.3513 31.1735 -2.6986 0
M  V30 19 C  -42.9926 30.2656 -3.4774 0
M  V30 20 C  -43.7554 30.8496 -4.3629 0
M  V30 21 C  -44.3758 29.8787 -5.1843 0
M  V30 22 C  -43.8670 28.6770 -4.7014 0
M  V30 23 N  -43.0062 28.9124 -3.6103 0
M  V30 24 O  -43.7137 32.1925 -4.2943 0
M  V30 25 O  -42.8153 34.6905 -3.6103 0
M  V30 26 O  -41.8197 38.9923 -0.6509 0
M  V30 27 O  -37.9516 39.0838 -6.8102 0
M  V30 28 H  -35.9517 39.8908 -2.4446 0
M  V30 29 H  -37.1130 39.0321 -1.4404 0
M  V30 30 H  -37.1670 40.8030 -1.5660 0
M  V30 31 H  -36.3896 39.3673 -4.7024 0
M  V30 32 H  -40.4580 39.7700 -6.2679 0
M  V30 33 H  -41.1856 40.2221 -3.9490 0
M  V30 34 H  -39.2034 40.0244 -0.9290 0
M  V30 35 H  -40.5326 40.8417 -1.6563 0
M  V30 36 H  -39.4220 37.4426 -3.5408 0
M  V30 37 H  -38.5464 37.1373 -2.0291 0
M  V30 38 H  -40.1880 35.3479 -3.7612 0
M  V30 39 H  -38.7767 34.9257 -2.8109 0
M  V30 40 H  -40.0305 34.8141 -0.7924 0
M  V30 41 H  -41.6445 36.3877 -0.2486 0
M  V30 42 H  -42.3877 36.4067 -1.8392 0
M  V30 43 H  -41.2085 33.0443 -1.4788 0
M  V30 44 H  -41.6387 31.0052 -1.9049 0
M  V30 45 H  -45.0560 30.0161 -6.0103 0
M  V30 46 H  -44.0417 27.6642 -5.0349 0
M  V30 47 H  -42.4947 28.2391 -3.0531 0
M  V30 END ATOM
M  V30 BEGIN BOND
M  V30 1 1 1 2
M  V30 2 1 1 28
M  V30 3 1 1 29
M  V30 4 1 1 30
M  V30 5 2 2 3
M  V30 6 1 2 7
M  V30 7 1 3 4
M  V30 8 1 3 31
M  V30 9 1 4 5
M  V30 10 2 4 27
M  V30 11 2 5 6
M  V30 12 1 5 32
M  V30 13 1 6 7
M  V30 14 1 6 33
M  V30 15 1 7 8
M  V30 16 1 8 9
M  V30 17 1 8 34
M  V30 18 1 8 35
M  V30 19 1 9 10
M  V30 20 2 9 26
M  V30 21 1 10 11
M  V30 22 1 10 14
M  V30 23 1 11 12
M  V30 24 1 11 36
M  V30 25 1 11 37
M  V30 26 1 12 13
M  V30 27 1 12 38
M  V30 28 1 12 39
M  V30 29 1 13 14
M  V30 30 1 13 15
M  V30 31 1 13 40
M  V30 32 1 14 41
M  V30 33 1 14 42
M  V30 34 1 15 16
M  V30 35 1 15 43
M  V30 36 1 16 17
M  V30 37 2 16 25
M  V30 38 2 17 18
M  V30 39 1 17 24
M  V30 40 1 18 19
M  V30 41 1 18 44
M  V30 42 2 19 20
M  V30 43 1 19 23
M  V30 44 1 20 21
M  V30 45 1 20 24
M  V30 46 2 21 22
M  V30 47 1 21 45
M  V30 48 1 22 23
M  V30 49 1 22 46
M  V30 50 1 23 47
M  V30 END BOND
M  V30 END CTAB
M  END
> <s_m_entry_id>
146

> <i_f3d_flags>
0

> <r_lp_tautomer_probability>
1

> <r_epik_Ionization_Penalty>
  0.0001

> <r_epik_State_Penalty>
  0.0000

> <i_epik_Tot_Q>
0

> <r_i_docking_score>
-5.88475728069421

> <r_i_glide_gscore>
-5.88475728069421

> <r_i_glide_emodel>
-52.5285731698676

> <s_m_subgroup_title>
nsp13-core1_lib_top-500_pv

> <s_m_subgroupid>
nsp13-core1_lib_top-500_pv

> <b_m_subgroup_collapsed>
0

$$$$
Core_1_EN300-1700760_EN300-1700760
                    3D
 Schrodinger Suite 2023-1.
  0  0  0     0  0            999 V3000
M  V30 BEGIN CTAB
M  V30 COUNTS 51 55 0 0 0
M  V30 BEGIN ATOM
M  V30 1 C  -42.8131 29.6812 -2.5325 0
M  V30 2 C  -42.7529 30.8731 -3.4794 0
M  V30 3 N  -42.2406 31.9918 -2.6901 0
M  V30 4 C  -42.1830 31.6803 -1.2707 0
M  V30 5 C  -42.7846 30.2846 -1.1238 0 CFG=1
M  V30 6 N  -44.0576 30.3511 -0.4105 0
M  V30 7 C  -45.2764 30.6429 -0.8865 0
M  V30 8 C  -46.3511 30.8932 0.1322 0
M  V30 9 C  -47.5850 30.2088 0.0097 0
M  V30 10 C  -48.6344 30.4694 0.9187 0
M  V30 11 C  -48.4433 31.4276 1.9347 0
M  V30 12 N  -47.2598 32.0740 2.0078 0 CHG=1
M  V30 13 C  -46.9482 33.0835 2.9990 0
M  V30 14 C  -45.4713 33.3661 2.7007 0
M  V30 15 N  -45.1368 32.6814 1.4588 0
M  V30 16 C  -46.2312 31.8555 1.1719 0
M  V30 17 O  -45.5513 30.6842 -2.0838 0
M  V30 18 C  -42.0502 33.2103 -3.2173 0
M  V30 19 C  -41.1802 34.2431 -2.4750 0 CFG=1
M  V30 20 C  -40.1002 34.8885 -3.3758 0
M  V30 21 C  -40.4387 36.2109 -2.7033 0 CFG=1
M  V30 22 C  -41.8119 35.6476 -2.3289 0
M  V30 23 C  -39.5112 36.9784 -1.7663 0
M  V30 24 C  -39.5515 38.0735 -2.8463 0
M  V30 25 N  -40.4359 37.3533 -3.6103 0
M  V30 26 O  -39.0360 39.1556 -3.0242 0
M  V30 27 O  -42.5047 33.4827 -4.3238 0
M  V30 28 H  -43.6560 29.0160 -2.7196 0
M  V30 29 H  -41.9112 29.0838 -2.6728 0
M  V30 30 H  -43.7428 31.1167 -3.8661 0
M  V30 31 H  -42.1085 30.6613 -4.3337 0
M  V30 32 H  -41.1507 31.6674 -0.9368 0
M  V30 33 H  -42.7088 32.4293 -0.6755 0
M  V30 34 H  -42.1320 29.6802 -0.4917 0
M  V30 35 H  -43.9517 30.2843 0.6014 0
M  V30 36 H  -47.7298 29.4845 -0.7794 0
M  V30 37 H  -49.5759 29.9448 0.8340 0
M  V30 38 H  -49.1892 31.6934 2.6703 0
M  V30 39 H  -47.5951 33.9424 2.8147 0
M  V30 40 H  -47.1205 32.6697 3.9935 0
M  V30 41 H  -45.2804 34.4363 2.6115 0
M  V30 42 H  -44.8340 32.9782 3.4970 0
M  V30 43 H  -40.7515 33.8897 -1.5365 0
M  V30 44 H  -40.3450 34.8871 -4.4379 0
M  V30 45 H  -39.0772 34.5552 -3.2103 0
M  V30 46 H  -42.1355 35.8897 -1.3163 0
M  V30 47 H  -42.5874 35.8688 -3.0652 0
M  V30 48 H  -38.5459 36.4945 -1.6174 0
M  V30 49 H  -39.9766 37.2438 -0.8173 0
M  V30 50 H  -40.8680 37.5163 -4.5147 0
M  V30 51 H  -44.2406 32.1971 1.4552 0
M  V30 END ATOM
M  V30 BEGIN BOND
M  V30 1 1 1 2
M  V30 2 1 1 5
M  V30 3 1 1 28
M  V30 4 1 1 29
M  V30 5 1 2 3
M  V30 6 1 2 30
M  V30 7 1 2 31
M  V30 8 1 3 4
M  V30 9 1 3 18
M  V30 10 1 4 5
M  V30 11 1 4 32
M  V30 12 1 4 33
M  V30 13 1 5 6
M  V30 14 1 5 34
M  V30 15 1 6 7
M  V30 16 1 6 35
M  V30 17 1 7 8
M  V30 18 2 7 17
M  V30 19 2 8 9
M  V30 20 1 8 16
M  V30 21 1 9 10
M  V30 22 1 9 36
M  V30 23 2 10 11
M  V30 24 1 10 37
M  V30 25 1 11 12
M  V30 26 1 11 38
M  V30 27 1 12 13
M  V30 28 2 12 16
M  V30 29 1 13 14
M  V30 30 1 13 39
M  V30 31 1 13 40
M  V30 32 1 14 15
M  V30 33 1 14 41
M  V30 34 1 14 42
M  V30 35 1 15 16
M  V30 36 1 15 51
M  V30 37 1 18 19
M  V30 38 2 18 27
M  V30 39 1 19 20
M  V30 40 1 19 22
M  V30 41 1 19 43
M  V30 42 1 20 21
M  V30 43 1 20 44
M  V30 44 1 20 45
M  V30 45 1 21 22
M  V30 46 1 21 23
M  V30 47 1 21 25
M  V30 48 1 22 46
M  V30 49 1 22 47
M  V30 50 1 23 24
M  V30 51 1 23 48
M  V30 52 1 23 49
M  V30 53 1 24 25
M  V30 54 2 24 26
M  V30 55 1 25 50
M  V30 END BOND
M  V30 END CTAB
M  END
> <s_m_entry_id>
150

> <i_f3d_flags>
0

> <r_lp_tautomer_probability>
1

> <r_epik_Ionization_Penalty>
  0.0000

> <r_epik_State_Penalty>
  0.0000

> <i_epik_Tot_Q>
1

> <r_i_docking_score>
-5.87572175708518

> <r_i_glide_gscore>
-5.87572175708518

> <r_i_glide_emodel>
-49.4635214504725

> <s_m_subgroup_title>
nsp13-core1_lib_top-500_pv

> <s_m_subgroupid>
nsp13-core1_lib_top-500_pv

> <b_m_subgroup_collapsed>
0

$$$$
Core_1_EN300-23942_EN300-23942
                    3D
 Schrodinger Suite 2023-1.
  0  0  0     0  0            999 V3000
M  V30 BEGIN CTAB
M  V30 COUNTS 38 40 0 0 0
M  V30 BEGIN ATOM
M  V30 1 C  -42.9896 36.3879 -2.8431 0
M  V30 2 C  -43.8311 35.1476 -2.5506 0
M  V30 3 N  -42.9874 33.9998 -2.8706 0
M  V30 4 C  -41.6114 34.4240 -3.1267 0
M  V30 5 C  -41.5460 35.9032 -2.7304 0 CFG=1
M  V30 6 N  -40.6612 36.6656 -3.6098 0
M  V30 7 C  -39.6380 37.4340 -3.1934 0
M  V30 8 C  -39.0063 38.2842 -4.2225 0
M  V30 9 C  -38.1919 39.3475 -3.9645 0
M  V30 10 C  -37.8972 39.8168 -5.2746 0
M  V30 11 N  -38.4480 39.1046 -6.2512 0
M  V30 12 N  -39.1507 38.1631 -5.5862 0
M  V30 13 O  -37.1514 40.9014 -5.6107 0
M  V30 14 O  -39.2653 37.4847 -2.0193 0
M  V30 15 C  -43.4471 32.7327 -2.8770 0
M  V30 16 C  -42.4734 31.6073 -3.2738 0
M  V30 17 N  -43.1090 30.4423 -3.8747 0
M  V30 18 C  -42.7745 29.1157 -3.7031 0
M  V30 19 C  -43.5513 28.3859 -4.5553 0
M  V30 20 C  -44.3503 29.3590 -5.2104 0
M  V30 21 N  -44.0756 30.5868 -4.8104 0
M  V30 22 O  -44.6151 32.4649 -2.5845 0
M  V30 23 H  -43.1999 36.7234 -3.8591 0
M  V30 24 H  -43.2100 37.2156 -2.1684 0
M  V30 25 H  -44.7515 35.1495 -3.1380 0
M  V30 26 H  -44.1025 35.1075 -1.4938 0
M  V30 27 H  -40.8864 33.8392 -2.5548 0
M  V30 28 H  -41.3903 34.2895 -4.1864 0
M  V30 29 H  -41.2439 35.9646 -1.6827 0
M  V30 30 H  -40.9491 36.7368 -4.5826 0
M  V30 31 H  -37.8757 39.7347 -3.0084 0
M  V30 32 H  -36.9410 40.8985 -6.5364 0
M  V30 33 H  -39.7468 37.4925 -6.0547 0
M  V30 34 H  -41.9234 31.2924 -2.3883 0
M  V30 35 H  -41.7425 31.9693 -3.9964 0
M  V30 36 H  -42.0056 28.8021 -3.0103 0
M  V30 37 H  -43.5510 27.3169 -4.6939 0
M  V30 38 H  -45.1077 29.2157 -5.9690 0
M  V30 END ATOM
M  V30 BEGIN BOND
M  V30 1 1 1 2
M  V30 2 1 1 5
M  V30 3 1 1 23
M  V30 4 1 1 24
M  V30 5 1 2 3
M  V30 6 1 2 25
M  V30 7 1 2 26
M  V30 8 1 3 4
M  V30 9 1 3 15
M  V30 10 1 4 5
M  V30 11 1 4 27
M  V30 12 1 4 28
M  V30 13 1 5 6
M  V30 14 1 5 29
M  V30 15 1 6 7
M  V30 16 1 6 30
M  V30 17 2 7 14
M  V30 18 1 7 8
M  V30 19 2 8 9
M  V30 20 1 8 12
M  V30 21 1 9 31
M  V30 22 1 9 10
M  V30 23 2 10 11
M  V30 24 1 10 13
M  V30 25 1 11 12
M  V30 26 1 12 33
M  V30 27 1 13 32
M  V30 28 1 15 16
M  V30 29 2 15 22
M  V30 30 1 16 17
M  V30 31 1 16 34
M  V30 32 1 16 35
M  V30 33 1 17 18
M  V30 34 1 17 21
M  V30 35 2 18 19
M  V30 36 1 18 36
M  V30 37 1 19 20
M  V30 38 1 19 37
M  V30 39 2 20 21
M  V30 40 1 20 38
M  V30 END BOND
M  V30 END CTAB
M  END
> <s_m_entry_id>
153

> <i_f3d_flags>
0

> <r_lp_tautomer_probability>
0.966084542645576

> <r_epik_Ionization_Penalty>
  0.2458

> <r_epik_State_Penalty>
  0.3550

> <i_epik_Tot_Q>
0

> <r_i_docking_score>
-5.8731076457814

> <r_i_glide_gscore>
-6.2281076457814

> <r_i_glide_emodel>
-57.363743210334

> <s_m_subgroup_title>
nsp13-core1_lib_top-500_pv

> <s_m_subgroupid>
nsp13-core1_lib_top-500_pv

> <b_m_subgroup_collapsed>
0

$$$$
Core_1_EN300-220527_EN300-220527
                    3D
 Schrodinger Suite 2023-1.
  0  0  0     0  0            999 V3000
M  V30 BEGIN CTAB
M  V30 COUNTS 41 44 0 0 0
M  V30 BEGIN ATOM
M  V30 1 C  -40.0857 35.9857 -1.1347 0
M  V30 2 C  -39.4092 37.2917 -1.5662 0
M  V30 3 N  -39.6178 37.3895 -3.0095 0
M  V30 4 C  -40.6071 36.4086 -3.4394 0
M  V30 5 C  -41.1939 35.7941 -2.1637 0 CFG=1
M  V30 6 N  -41.5783 34.3980 -2.3578 0
M  V30 7 C  -42.6467 34.0218 -3.0788 0
M  V30 8 C  -42.8260 32.5785 -3.2994 0
M  V30 9 C  -42.3521 31.4891 -2.5662 0
M  V30 10 C  -42.8505 30.4462 -3.2820 0
M  V30 11 C  -43.5543 30.8626 -4.3023 0
M  V30 12 C  -44.0522 29.7621 -5.0383 0
M  V30 13 C  -43.5513 28.6656 -4.3443 0
M  V30 14 N  -42.8081 29.0862 -3.2216 0
M  V30 15 O  -43.6126 32.2017 -4.3946 0
M  V30 16 O  -43.4166 34.8216 -3.6101 0
M  V30 17 C  -38.9948 38.2918 -3.7994 0
M  V30 18 C  -38.9799 38.0784 -5.3251 0
M  V30 19 C  -39.4408 39.3005 -6.0604 0
M  V30 20 N  -38.7552 39.8835 -7.0407 0
M  V30 21 C  -39.5649 40.9331 -7.4754 0
M  V30 22 C  -40.7390 40.9389 -6.7581 0
M  V30 23 N  -40.6306 39.8854 -5.8670 0
M  V30 24 O  -38.3506 39.2269 -3.3245 0
M  V30 25 H  -39.3646 35.1691 -1.1982 0
M  V30 26 H  -40.4587 36.0219 -0.1108 0
M  V30 27 H  -38.3494 37.2965 -1.3063 0
M  V30 28 H  -39.8798 38.1482 -1.0814 0
M  V30 29 H  -41.4001 36.8846 -4.0102 0
M  V30 30 H  -40.1247 35.6524 -4.0614 0
M  V30 31 H  -42.0611 36.3785 -1.8482 0
M  V30 32 H  -40.9849 33.6843 -1.9610 0
M  V30 33 H  -41.7407 31.4741 -1.6757 0
M  V30 34 H  -44.6567 29.7537 -5.9338 0
M  V30 35 H  -43.6612 27.6099 -4.5452 0
M  V30 36 H  -42.3517 28.5077 -2.5232 0
M  V30 37 H  -39.5514 37.2162 -5.6559 0
M  V30 38 H  -37.9514 37.8836 -5.6185 0
M  V30 39 H  -39.2445 41.5896 -8.2710 0
M  V30 40 H  -41.6074 41.5792 -6.8059 0
M  V30 41 H  -41.3351 39.5868 -5.2071 0
M  V30 END ATOM
M  V30 BEGIN BOND
M  V30 1 1 1 2
M  V30 2 1 1 5
M  V30 3 1 1 25
M  V30 4 1 1 26
M  V30 5 1 2 3
M  V30 6 1 2 27
M  V30 7 1 2 28
M  V30 8 1 3 4
M  V30 9 1 3 17
M  V30 10 1 4 5
M  V30 11 1 4 29
M  V30 12 1 4 30
M  V30 13 1 5 6
M  V30 14 1 5 31
M  V30 15 1 6 7
M  V30 16 1 6 32
M  V30 17 1 7 8
M  V30 18 2 7 16
M  V30 19 2 8 9
M  V30 20 1 8 15
M  V30 21 1 9 10
M  V30 22 1 9 33
M  V30 23 2 10 11
M  V30 24 1 10 14
M  V30 25 1 11 12
M  V30 26 1 11 15
M  V30 27 2 12 13
M  V30 28 1 12 34
M  V30 29 1 13 14
M  V30 30 1 13 35
M  V30 31 1 14 36
M  V30 32 1 17 18
M  V30 33 2 17 24
M  V30 34 1 18 19
M  V30 35 1 18 37
M  V30 36 1 18 38
M  V30 37 2 19 20
M  V30 38 1 19 23
M  V30 39 1 20 21
M  V30 40 2 21 22
M  V30 41 1 21 39
M  V30 42 1 22 23
M  V30 43 1 22 40
M  V30 44 1 23 41
M  V30 END BOND
M  V30 END CTAB
M  END
> <s_m_entry_id>
154

> <i_f3d_flags>
0

> <r_lp_tautomer_probability>
0.499999999999999

> <r_epik_Ionization_Penalty>
  0.1059

> <r_epik_State_Penalty>
  0.1059

> <i_epik_Tot_Q>
0

> <r_i_docking_score>
-5.8728779776772

> <r_i_glide_gscore>
-5.9787779776772

> <r_i_glide_emodel>
-53.1584129583

> <s_m_subgroup_title>
nsp13-core1_lib_top-500_pv

> <s_m_subgroupid>
nsp13-core1_lib_top-500_pv

> <b_m_subgroup_collapsed>
0

$$$$
Core_1_EN300-124479_EN300-124479
                    3D
 Schrodinger Suite 2023-1.
  0  0  0     0  0            999 V3000
M  V30 BEGIN CTAB
M  V30 COUNTS 46 49 0 0 0
M  V30 BEGIN ATOM
M  V30 1 C  -45.5042 41.7820 -5.9038 0
M  V30 2 C  -44.7280 42.3651 -7.1167 0
M  V30 3 C  -43.7307 41.2799 -6.8135 0
M  V30 4 C  -44.4430 40.6840 -5.8549 0
M  V30 5 C  -42.5961 40.7981 -7.5834 0
M  V30 6 N  -41.4948 40.4683 -6.8653 0
M  V30 7 C  -40.3014 39.8883 -7.4765 0
M  V30 8 C  -39.1720 40.0304 -6.4600 0
M  V30 9 C  -39.8706 40.1449 -5.1120 0 CFG=1
M  V30 10 C  -41.2838 40.6559 -5.4264 0
M  V30 11 N  -39.9503 38.8470 -4.4542 0
M  V30 12 C  -39.4803 38.5378 -3.2381 0
M  V30 13 C  -39.8882 37.1813 -2.7566 0
M  V30 14 C  -39.8601 36.0742 -3.6311 0
M  V30 15 C  -40.3515 34.8286 -3.2100 0
M  V30 16 C  -40.8890 34.6745 -1.9157 0
M  V30 17 C  -41.5145 33.4123 -1.4958 0
M  V30 18 C  -42.4660 32.6927 -2.1297 0
M  V30 19 C  -43.2216 33.0337 -3.3356 0
M  V30 20 N  -44.2114 32.1722 -3.6465 0 CHG=-1
M  V30 21 C  -44.3514 31.1543 -2.8246 0
M  V30 22 O  -45.2122 30.2838 -2.8162 0
M  V30 23 S  -43.1135 31.1735 -1.5459 0
M  V30 24 O  -42.9987 34.0343 -4.0101 0
M  V30 25 C  -40.8348 35.7558 -1.0133 0
M  V30 26 C  -40.3325 37.0040 -1.4293 0
M  V30 27 O  -38.8368 39.3074 -2.5259 0
M  V30 28 O  -42.6409 40.6837 -8.8098 0
M  V30 29 H  -46.5173 41.4773 -6.1679 0
M  V30 30 H  -45.5349 42.4720 -5.0594 0
M  V30 31 H  -45.2837 42.2776 -8.0509 0
M  V30 32 H  -44.4082 43.3957 -6.9602 0
M  V30 33 H  -44.3515 39.7582 -5.2932 0
M  V30 34 H  -40.4931 38.8346 -7.6800 0
M  V30 35 H  -40.0350 40.3787 -8.4104 0
M  V30 36 H  -38.4510 39.2133 -6.5056 0
M  V30 37 H  -38.6259 40.9537 -6.6592 0
M  V30 38 H  -39.3429 40.8592 -4.4767 0
M  V30 39 H  -41.3571 41.7196 -5.1932 0
M  V30 40 H  -42.0329 40.1340 -4.8297 0
M  V30 41 H  -40.5026 38.1384 -4.9273 0
M  V30 42 H  -39.4972 36.1778 -4.6438 0
M  V30 43 H  -40.3587 33.9993 -3.9016 0
M  V30 44 H  -41.1259 32.9980 -0.5779 0
M  V30 45 H  -41.2198 35.6423 -0.0103 0
M  V30 46 H  -40.3376 37.8372 -0.7412 0
M  V30 END ATOM
M  V30 BEGIN BOND
M  V30 1 1 1 2
M  V30 2 1 1 4
M  V30 3 1 1 29
M  V30 4 1 1 30
M  V30 5 1 2 3
M  V30 6 1 2 31
M  V30 7 1 2 32
M  V30 8 2 3 4
M  V30 9 1 3 5
M  V30 10 1 4 33
M  V30 11 1 5 6
M  V30 12 2 5 28
M  V30 13 1 6 7
M  V30 14 1 6 10
M  V30 15 1 7 8
M  V30 16 1 7 34
M  V30 17 1 7 35
M  V30 18 1 8 9
M  V30 19 1 8 36
M  V30 20 1 8 37
M  V30 21 1 9 10
M  V30 22 1 9 11
M  V30 23 1 9 38
M  V30 24 1 10 39
M  V30 25 1 10 40
M  V30 26 1 11 12
M  V30 27 1 11 41
M  V30 28 1 12 13
M  V30 29 2 12 27
M  V30 30 2 13 14
M  V30 31 1 13 26
M  V30 32 1 14 15
M  V30 33 1 14 42
M  V30 34 2 15 16
M  V30 35 1 15 43
M  V30 36 1 16 17
M  V30 37 1 16 25
M  V30 38 2 17 18 CFG=2
M  V30 39 1 17 44
M  V30 40 1 18 19
M  V30 41 1 18 23
M  V30 42 1 19 20
M  V30 43 2 19 24
M  V30 44 1 20 21
M  V30 45 2 21 22
M  V30 46 1 21 23
M  V30 47 2 25 26
M  V30 48 1 25 45
M  V30 49 1 26 46
M  V30 END BOND
M  V30 END CTAB
M  END
> <s_m_entry_id>
156

> <i_f3d_flags>
0

> <r_epik_Ionization_Penalty>
  0.0630

> <r_epik_State_Penalty>
  0.0630

> <i_epik_Tot_Q>
-1

> <r_i_docking_score>
-5.87136139477541

> <r_i_glide_gscore>
-5.93436139477541

> <r_i_glide_emodel>
-58.7617837242505

> <s_m_subgroup_title>
nsp13-core1_lib_top-500_pv

> <s_m_subgroupid>
nsp13-core1_lib_top-500_pv

> <b_m_subgroup_collapsed>
0

$$$$
Core_1_EN300-63781_EN300-63781
                    3D
 Schrodinger Suite 2023-1.
  0  0  0     0  0            999 V3000
M  V30 BEGIN CTAB
M  V30 COUNTS 48 52 0 0 0
M  V30 BEGIN ATOM
M  V30 1 C  -37.4350 39.2169 -5.5329 0
M  V30 2 C  -38.7660 39.6844 -6.0172 0
M  V30 3 C  -40.0161 39.7741 -5.4627 0
M  V30 4 C  -40.6074 39.4470 -4.1584 0
M  V30 5 C  -39.7327 38.8900 -3.0961 0
M  V30 6 N  -40.0895 37.7187 -2.5155 0
M  V30 7 C  -39.3672 37.1757 -1.3666 0
M  V30 8 C  -39.8345 35.7303 -1.2109 0
M  V30 9 C  -41.2105 35.6976 -1.8691 0 CFG=1
M  V30 10 C  -41.1108 36.7656 -2.9674 0
M  V30 11 N  -41.5422 34.3600 -2.3547 0
M  V30 12 C  -42.6391 34.0212 -3.0480 0
M  V30 13 C  -42.8189 32.5831 -3.3063 0
M  V30 14 C  -42.3513 31.4867 -2.5821 0
M  V30 15 C  -42.8517 30.4497 -3.3036 0
M  V30 16 C  -43.5522 30.8765 -4.3189 0
M  V30 17 C  -44.0515 29.7827 -5.0645 0
M  V30 18 C  -43.5512 28.6820 -4.3766 0
M  V30 19 N  -42.8105 29.0892 -3.2484 0
M  V30 20 O  -43.6094 32.2175 -4.4044 0
M  V30 21 O  -43.4453 34.8380 -3.4941 0
M  V30 22 O  -38.7288 39.5157 -2.7486 0
M  V30 23 N  -41.8706 39.6649 -3.9697 0
M  V30 24 N  -42.6861 40.1774 -4.9788 0
M  V30 25 C  -44.0733 40.3987 -4.5784 0
M  V30 26 C  -42.2869 40.4730 -6.2523 0
M  V30 27 C  -40.8188 40.2739 -6.5167 0
M  V30 28 N  -40.1263 40.4838 -7.6218 0
M  V30 29 O  -38.8119 40.1169 -7.3079 0
M  V30 30 O  -43.0386 40.8808 -7.1398 0
M  V30 31 H  -36.9844 39.9600 -4.8748 0
M  V30 32 H  -37.5387 38.2845 -4.9770 0
M  V30 33 H  -36.7523 39.0446 -6.3640 0
M  V30 34 H  -39.6294 37.7576 -0.4818 0
M  V30 35 H  -38.2833 37.2264 -1.4953 0
M  V30 36 H  -39.8523 35.3999 -0.1719 0
M  V30 37 H  -39.1441 35.0840 -1.7552 0
M  V30 38 H  -41.9564 36.0083 -1.1356 0
M  V30 39 H  -40.7795 36.3292 -3.9129 0
M  V30 40 H  -42.0877 37.2219 -3.1305 0
M  V30 41 H  -40.9299 33.6094 -2.0654 0
M  V30 42 H  -41.7417 31.4639 -1.6900 0
M  V30 43 H  -44.6541 29.7796 -5.9602 0
M  V30 44 H  -43.6608 27.6313 -4.5854 0
M  V30 45 H  -42.3509 28.5054 -2.5577 0
M  V30 46 H  -44.7657 39.8839 -5.2435 0
M  V30 47 H  -44.2706 40.0423 -3.5642 0
M  V30 48 H  -44.3125 41.4654 -4.6060 0
M  V30 END ATOM
M  V30 BEGIN BOND
M  V30 1 1 1 2
M  V30 2 1 1 31
M  V30 3 1 1 32
M  V30 4 1 1 33
M  V30 5 2 2 3
M  V30 6 1 2 29
M  V30 7 1 3 4
M  V30 8 1 3 27
M  V30 9 1 4 5
M  V30 10 2 4 23
M  V30 11 1 5 6
M  V30 12 2 5 22
M  V30 13 1 6 7
M  V30 14 1 6 10
M  V30 15 1 7 8
M  V30 16 1 7 34
M  V30 17 1 7 35
M  V30 18 1 8 9
M  V30 19 1 8 36
M  V30 20 1 8 37
M  V30 21 1 9 10
M  V30 22 1 9 11
M  V30 23 1 9 38
M  V30 24 1 10 39
M  V30 25 1 10 40
M  V30 26 1 11 12
M  V30 27 1 11 41
M  V30 28 1 12 13
M  V30 29 2 12 21
M  V30 30 2 13 14
M  V30 31 1 13 20
M  V30 32 1 14 15
M  V30 33 1 14 42
M  V30 34 2 15 16
M  V30 35 1 15 19
M  V30 36 1 16 17
M  V30 37 1 16 20
M  V30 38 2 17 18
M  V30 39 1 17 43
M  V30 40 1 18 19
M  V30 41 1 18 44
M  V30 42 1 19 45
M  V30 43 1 23 24
M  V30 44 1 24 25
M  V30 45 1 24 26
M  V30 46 1 25 46
M  V30 47 1 25 47
M  V30 48 1 25 48
M  V30 49 1 26 27
M  V30 50 2 26 30
M  V30 51 2 27 28
M  V30 52 1 28 29
M  V30 END BOND
M  V30 END CTAB
M  END
> <s_m_entry_id>
162

> <i_f3d_flags>
0

> <r_lp_tautomer_probability>
1

> <r_epik_Ionization_Penalty>
  0.0000

> <r_epik_State_Penalty>
  0.0000

> <i_epik_Tot_Q>
0

> <r_i_docking_score>
-5.8636613578447

> <r_i_glide_gscore>
-5.8636613578447

> <r_i_glide_emodel>
-61.951507402323

> <s_m_subgroup_title>
nsp13-core1_lib_top-500_pv

> <s_m_subgroupid>
nsp13-core1_lib_top-500_pv

> <b_m_subgroup_collapsed>
0

$$$$
Core_1_EN300-105058_EN300-105058
                    3D
 Schrodinger Suite 2023-1.
  0  0  0     0  0            999 V3000
M  V30 BEGIN CTAB
M  V30 COUNTS 44 47 0 0 0
M  V30 BEGIN ATOM
M  V30 1 C  -43.0396 40.0221 -4.1627 0
M  V30 2 O  -41.6939 39.7568 -3.7993 0
M  V30 3 C  -40.7598 39.6621 -4.8101 0
M  V30 4 C  -40.9939 40.1166 -6.1320 0
M  V30 5 C  -39.9667 39.9969 -7.0853 0
M  V30 6 N  -38.7514 39.4836 -6.8103 0
M  V30 7 C  -38.5233 39.0642 -5.5485 0
M  V30 8 C  -39.4881 39.1120 -4.5205 0
M  V30 9 C  -39.1038 38.6814 -3.1361 0
M  V30 10 N  -39.7484 37.6369 -2.5639 0
M  V30 11 C  -39.4506 37.2095 -1.1985 0
M  V30 12 C  -40.0792 35.8305 -1.0343 0
M  V30 13 C  -41.2139 35.8056 -2.0522 0 CFG=1
M  V30 14 C  -40.7234 36.7294 -3.1808 0
M  V30 15 N  -41.5179 34.4397 -2.4782 0
M  V30 16 C  -42.6209 34.0721 -3.1483 0
M  V30 17 C  -42.8088 32.6226 -3.3553 0
M  V30 18 C  -42.3467 31.5421 -2.6001 0
M  V30 19 C  -42.8477 30.4854 -3.2936 0
M  V30 20 C  -43.5539 30.8865 -4.3184 0
M  V30 21 C  -44.0536 29.7714 -5.0332 0
M  V30 22 C  -43.5513 28.6838 -4.3235 0
M  V30 23 N  -42.8053 29.1244 -3.2108 0
M  V30 24 O  -43.6095 32.2267 -4.4328 0
M  V30 25 O  -43.4312 34.8748 -3.6093 0
M  V30 26 O  -38.1984 39.2904 -2.5664 0
M  V30 27 H  -43.6742 39.9209 -3.2831 0
M  V30 28 H  -43.1569 41.0383 -4.5404 0
M  V30 29 H  -43.3981 39.3113 -4.9094 0
M  V30 30 H  -41.9345 40.5507 -6.4324 0
M  V30 31 H  -40.1261 40.3290 -8.1002 0
M  V30 32 H  -37.5314 38.6814 -5.3546 0
M  V30 33 H  -39.8987 37.9194 -0.5025 0
M  V30 34 H  -38.3777 37.1748 -0.9987 0
M  V30 35 H  -40.4185 35.6397 -0.0154 0
M  V30 36 H  -39.3262 35.0826 -1.2819 0
M  V30 37 H  -42.0970 36.2525 -1.5910 0
M  V30 38 H  -40.2334 36.1674 -3.9779 0
M  V30 39 H  -41.5714 37.2595 -3.6103 0
M  V30 40 H  -40.8913 33.7107 -2.1694 0
M  V30 41 H  -41.7335 31.5416 -1.7101 0
M  V30 42 H  -44.6612 29.7502 -5.9267 0
M  V30 43 H  -43.6636 27.6250 -4.5074 0
M  V30 44 H  -42.3503 28.5558 -2.5043 0
M  V30 END ATOM
M  V30 BEGIN BOND
M  V30 1 1 1 2
M  V30 2 1 1 27
M  V30 3 1 1 28
M  V30 4 1 1 29
M  V30 5 1 2 3
M  V30 6 2 3 4
M  V30 7 1 3 8
M  V30 8 1 4 5
M  V30 9 1 4 30
M  V30 10 2 5 6
M  V30 11 1 5 31
M  V30 12 1 6 7
M  V30 13 2 7 8
M  V30 14 1 7 32
M  V30 15 1 8 9
M  V30 16 1 9 10
M  V30 17 2 9 26
M  V30 18 1 10 11
M  V30 19 1 10 14
M  V30 20 1 11 12
M  V30 21 1 11 33
M  V30 22 1 11 34
M  V30 23 1 12 13
M  V30 24 1 12 35
M  V30 25 1 12 36
M  V30 26 1 13 14
M  V30 27 1 13 15
M  V30 28 1 13 37
M  V30 29 1 14 38
M  V30 30 1 14 39
M  V30 31 1 15 16
M  V30 32 1 15 40
M  V30 33 1 16 17
M  V30 34 2 16 25
M  V30 35 2 17 18
M  V30 36 1 17 24
M  V30 37 1 18 19
M  V30 38 1 18 41
M  V30 39 2 19 20
M  V30 40 1 19 23
M  V30 41 1 20 21
M  V30 42 1 20 24
M  V30 43 2 21 22
M  V30 44 1 21 42
M  V30 45 1 22 23
M  V30 46 1 22 43
M  V30 47 1 23 44
M  V30 END BOND
M  V30 END CTAB
M  END
> <s_m_entry_id>
165

> <i_f3d_flags>
0

> <r_epik_Ionization_Penalty>
  0.0114

> <r_epik_State_Penalty>
  0.0113

> <i_epik_Tot_Q>
0

> <r_i_docking_score>
-5.86159080392371

> <r_i_glide_gscore>
-5.87289080392372

> <r_i_glide_emodel>
-52.8073250472376

> <s_m_subgroup_title>
nsp13-core1_lib_top-500_pv

> <s_m_subgroupid>
nsp13-core1_lib_top-500_pv

> <b_m_subgroup_collapsed>
0

$$$$
Core_1_EN300-17372_EN300-17372
                    3D
 Schrodinger Suite 2023-1.
  0  0  0     0  0            999 V3000
M  V30 BEGIN CTAB
M  V30 COUNTS 38 40 0 0 0
M  V30 BEGIN ATOM
M  V30 1 C  -43.0003 36.6090 -2.8099 0
M  V30 2 C  -43.8280 35.3698 -2.4829 0
M  V30 3 N  -42.9787 34.2232 -2.7933 0
M  V30 4 C  -41.6063 34.6487 -3.0526 0
M  V30 5 C  -41.5559 36.1352 -2.6859 0 CFG=1
M  V30 6 N  -40.6791 36.8851 -3.5785 0
M  V30 7 C  -39.5918 37.5663 -3.1907 0
M  V30 8 C  -38.9747 38.4235 -4.2185 0
M  V30 9 C  -38.1547 39.4836 -3.9629 0
M  V30 10 C  -37.8903 39.9712 -5.2733 0
M  V30 11 N  -38.4621 39.2680 -6.2466 0
M  V30 12 N  -39.1503 38.3153 -5.5794 0
M  V30 13 O  -37.1517 41.0607 -5.6107 0
M  V30 14 O  -39.1511 37.5438 -2.0400 0
M  V30 15 C  -43.4303 32.9500 -2.7748 0
M  V30 16 C  -42.4627 31.8177 -3.1680 0
M  V30 17 C  -43.1332 30.6687 -3.8771 0
M  V30 18 C  -44.3055 30.7426 -4.6989 0
M  V30 19 C  -44.6845 29.5359 -5.2161 0
M  V30 20 S  -43.5513 28.2860 -4.8105 0
M  V30 21 C  -42.6315 29.3930 -3.8318 0
M  V30 22 O  -44.5948 32.6825 -2.4693 0
M  V30 23 H  -43.2125 36.9171 -3.8356 0
M  V30 24 H  -43.2259 37.4519 -2.1549 0
M  V30 25 H  -44.7573 35.3549 -3.0536 0
M  V30 26 H  -44.0797 35.3467 -1.4211 0
M  V30 27 H  -40.8834 34.0845 -2.4597 0
M  V30 28 H  -41.3726 34.4964 -4.1063 0
M  V30 29 H  -41.2555 36.2271 -1.6392 0
M  V30 30 H  -41.0069 37.0089 -4.5356 0
M  V30 31 H  -37.8177 39.8545 -3.0064 0
M  V30 32 H  -36.9652 41.0769 -6.5392 0
M  V30 33 H  -39.7528 37.6437 -6.0405 0
M  V30 34 H  -41.9761 31.4708 -2.2549 0
M  V30 35 H  -41.6703 32.1958 -3.8110 0
M  V30 36 H  -44.8344 31.6653 -4.8837 0
M  V30 37 H  -45.5226 29.3208 -5.8626 0
M  V30 38 H  -41.7567 29.0347 -3.3057 0
M  V30 END ATOM
M  V30 BEGIN BOND
M  V30 1 1 1 2
M  V30 2 1 1 5
M  V30 3 1 1 23
M  V30 4 1 1 24
M  V30 5 1 2 3
M  V30 6 1 2 25
M  V30 7 1 2 26
M  V30 8 1 3 4
M  V30 9 1 3 15
M  V30 10 1 4 5
M  V30 11 1 4 27
M  V30 12 1 4 28
M  V30 13 1 5 6
M  V30 14 1 5 29
M  V30 15 1 6 7
M  V30 16 1 6 30
M  V30 17 2 7 14
M  V30 18 1 7 8
M  V30 19 2 8 9
M  V30 20 1 8 12
M  V30 21 1 9 31
M  V30 22 1 9 10
M  V30 23 2 10 11
M  V30 24 1 10 13
M  V30 25 1 11 12
M  V30 26 1 12 33
M  V30 27 1 13 32
M  V30 28 1 15 16
M  V30 29 2 15 22
M  V30 30 1 16 17
M  V30 31 1 16 34
M  V30 32 1 16 35
M  V30 33 1 17 18
M  V30 34 2 17 21
M  V30 35 2 18 19
M  V30 36 1 18 36
M  V30 37 1 19 20
M  V30 38 1 19 37
M  V30 39 1 20 21
M  V30 40 1 21 38
M  V30 END BOND
M  V30 END CTAB
M  END
> <s_m_entry_id>
168

> <i_f3d_flags>
0

> <r_lp_tautomer_probability>
0.966084542645576

> <r_epik_Ionization_Penalty>
  0.2455

> <r_epik_State_Penalty>
  0.3538

> <i_epik_Tot_Q>
0

> <r_i_docking_score>
-5.85650622954527

> <r_i_glide_gscore>
-6.21030622954527

> <r_i_glide_emodel>
-54.3235115868395

> <s_m_subgroup_title>
nsp13-core1_lib_top-500_pv

> <s_m_subgroupid>
nsp13-core1_lib_top-500_pv

> <b_m_subgroup_collapsed>
0

$$$$
Core_1_EN300-135238_EN300-135238
                    3D
 Schrodinger Suite 2023-1.
  0  0  0     0  0            999 V3000
M  V30 BEGIN CTAB
M  V30 COUNTS 44 47 0 0 0
M  V30 BEGIN ATOM
M  V30 1 C  -46.4772 32.2529 2.5665 0
M  V30 2 C  -46.2132 32.2258 1.0650 0
M  V30 3 N  -45.5514 30.9380 1.2811 0 CHG=1
M  V30 4 C  -46.3536 30.7355 2.4869 0
M  V30 5 C  -45.6879 29.8944 0.2377 0
M  V30 6 C  -44.9538 30.2838 -1.0422 0
M  V30 7 N  -43.8713 29.5644 -1.3843 0
M  V30 8 C  -42.9095 29.8677 -2.4504 0 CFG=1
M  V30 9 C  -43.5126 29.9225 -3.8537 0
M  V30 10 C  -43.5734 31.4078 -4.2151 0
M  V30 11 N  -42.7912 32.1334 -3.2127 0
M  V30 12 C  -42.2232 31.2193 -2.2270 0
M  V30 13 C  -42.7132 33.4811 -3.2102 0
M  V30 14 C  -41.7505 34.1605 -2.2797 0
M  V30 15 C  -41.5605 34.0229 -0.8507 0
M  V30 16 N  -40.6229 34.8589 -0.3333 0
M  V30 17 N  -40.2395 35.5443 -1.4251 0
M  V30 18 C  -39.3896 36.5591 -1.6645 0
M  V30 19 C  -39.5532 36.8176 -3.0823 0
M  V30 20 N  -40.4800 35.9531 -3.6103 0
M  V30 21 C  -40.8538 35.2096 -2.5521 0
M  V30 22 O  -43.3484 34.1659 -4.0093 0
M  V30 23 O  -45.3856 31.2185 -1.7143 0
M  V30 24 H  -45.6738 32.7218 3.1379 0
M  V30 25 H  -47.4605 32.6238 2.8563 0
M  V30 26 H  -47.1240 32.1502 0.4674 0
M  V30 27 H  -45.5453 33.0076 0.7008 0
M  V30 28 H  -45.7998 30.2766 3.3075 0
M  V30 29 H  -47.3060 30.2351 2.2996 0
M  V30 30 H  -45.2975 28.9531 0.6249 0
M  V30 31 H  -46.7400 29.7294 0.0024 0
M  V30 32 H  -43.6061 28.7803 -0.7997 0
M  V30 33 H  -42.1550 29.0833 -2.4106 0
M  V30 34 H  -42.8486 29.4096 -4.5512 0
M  V30 35 H  -44.4853 29.4353 -3.9251 0
M  V30 36 H  -43.1621 31.5786 -5.2092 0
M  V30 37 H  -44.6040 31.7637 -4.2176 0
M  V30 38 H  -42.3583 31.5474 -1.2003 0
M  V30 39 H  -41.1516 31.1450 -2.4098 0
M  V30 40 H  -42.0753 33.3766 -0.1567 0
M  V30 41 H  -38.7885 37.0031 -0.8809 0
M  V30 42 H  -39.0900 37.5543 -3.7278 0
M  V30 43 H  -40.8068 36.0036 -4.5695 0
M  V30 44 H  -44.5715 31.0553 1.5799 0
M  V30 END ATOM
M  V30 BEGIN BOND
M  V30 1 1 1 2
M  V30 2 1 1 4
M  V30 3 1 1 24
M  V30 4 1 1 25
M  V30 5 1 2 3
M  V30 6 1 2 26
M  V30 7 1 2 27
M  V30 8 1 3 4
M  V30 9 1 3 5
M  V30 10 1 3 44
M  V30 11 1 4 28
M  V30 12 1 4 29
M  V30 13 1 5 6
M  V30 14 1 5 30
M  V30 15 1 5 31
M  V30 16 1 6 7
M  V30 17 2 6 23
M  V30 18 1 7 8
M  V30 19 1 7 32
M  V30 20 1 8 9
M  V30 21 1 8 12
M  V30 22 1 8 33
M  V30 23 1 9 10
M  V30 24 1 9 34
M  V30 25 1 9 35
M  V30 26 1 10 11
M  V30 27 1 10 36
M  V30 28 1 10 37
M  V30 29 1 11 12
M  V30 30 1 11 13
M  V30 31 1 12 38
M  V30 32 1 12 39
M  V30 33 1 13 14
M  V30 34 2 13 22
M  V30 35 1 14 15
M  V30 36 2 14 21
M  V30 37 2 15 16
M  V30 38 1 15 40
M  V30 39 1 16 17
M  V30 40 1 17 18
M  V30 41 1 17 21
M  V30 42 2 18 19
M  V30 43 1 18 41
M  V30 44 1 19 20
M  V30 45 1 19 42
M  V30 46 1 20 21
M  V30 47 1 20 43
M  V30 END BOND
M  V30 END CTAB
M  END
> <s_m_entry_id>
172

> <i_f3d_flags>
0

> <r_epik_Ionization_Penalty>
  0.0137

> <r_epik_State_Penalty>
  0.0137

> <i_epik_Tot_Q>
1

> <r_i_docking_score>
-5.8507303727027

> <r_i_glide_gscore>
-5.8644303727027

> <r_i_glide_emodel>
-48.8884134632155

> <s_m_subgroup_title>
nsp13-core1_lib_top-500_pv

> <s_m_subgroupid>
nsp13-core1_lib_top-500_pv

> <b_m_subgroup_collapsed>
0

$$$$
Core_1_EN300-09511_EN300-09511
                    3D
 Schrodinger Suite 2023-1.
  0  0  0     0  0            999 V3000
M  V30 BEGIN CTAB
M  V30 COUNTS 40 43 0 0 0
M  V30 BEGIN ATOM
M  V30 1 C  -40.0778 37.4514 -1.5507 0
M  V30 2 C  -40.6376 36.3356 -0.6734 0
M  V30 3 N  -41.1082 35.2936 -1.5849 0
M  V30 4 C  -40.6707 35.5861 -2.9535 0
M  V30 5 C  -39.6610 36.7385 -2.8340 0 CFG=1
M  V30 6 N  -39.6757 37.6079 -4.0100 0
M  V30 7 C  -38.8859 38.6790 -4.2069 0
M  V30 8 C  -39.0158 39.3588 -5.5134 0
M  V30 9 C  -38.2163 40.3685 -5.9644 0
M  V30 10 C  -38.7829 40.6487 -7.2415 0
M  V30 11 N  -39.8194 39.8847 -7.5570 0
M  V30 12 N  -39.9515 39.0840 -6.4817 0
M  V30 13 O  -38.3514 41.5519 -8.1600 0
M  V30 14 O  -38.0766 39.0837 -3.3738 0
M  V30 15 C  -41.7249 34.1793 -1.1233 0
M  V30 16 C  -42.2912 33.1810 -2.0979 0
M  V30 17 C  -43.1229 33.5870 -3.1710 0
M  V30 18 C  -43.7232 32.6354 -4.0239 0
M  V30 19 C  -43.5244 31.2550 -3.8018 0
M  V30 20 C  -42.7129 30.8645 -2.7147 0
M  V30 21 C  -42.1001 31.7992 -1.8607 0
M  V30 22 N  -42.7780 29.4881 -2.8102 0
M  V30 23 N  -43.5445 29.0844 -3.8590 0
M  V30 24 N  -44.0099 30.1379 -4.4615 0
M  V30 25 O  -41.8389 33.9534 0.0801 0
M  V30 26 H  -39.2536 37.9841 -1.0732 0
M  V30 27 H  -40.8664 38.1768 -1.7590 0
M  V30 28 H  -39.8505 35.9228 -0.0395 0
M  V30 29 H  -41.4359 36.7007 -0.0242 0
M  V30 30 H  -41.5313 35.9050 -3.5412 0
M  V30 31 H  -40.2265 34.7148 -3.4390 0
M  V30 32 H  -38.6679 36.3139 -2.6942 0
M  V30 33 H  -40.3213 37.3544 -4.7468 0
M  V30 34 H  -37.3723 40.8240 -5.4673 0
M  V30 35 H  -37.4209 41.6988 -8.0547 0
M  V30 36 H  -40.6910 38.3871 -6.4104 0
M  V30 37 H  -43.3387 34.6327 -3.3283 0
M  V30 38 H  -44.3515 32.9594 -4.8386 0
M  V30 39 H  -41.5102 31.4600 -1.0204 0
M  V30 40 H  -42.3518 28.8090 -2.1867 0
M  V30 END ATOM
M  V30 BEGIN BOND
M  V30 1 1 1 2
M  V30 2 1 1 5
M  V30 3 1 1 26
M  V30 4 1 1 27
M  V30 5 1 2 3
M  V30 6 1 2 28
M  V30 7 1 2 29
M  V30 8 1 3 4
M  V30 9 1 3 15
M  V30 10 1 4 5
M  V30 11 1 4 30
M  V30 12 1 4 31
M  V30 13 1 5 6
M  V30 14 1 5 32
M  V30 15 1 6 7
M  V30 16 1 6 33
M  V30 17 2 7 14
M  V30 18 1 7 8
M  V30 19 2 8 9
M  V30 20 1 8 12
M  V30 21 1 9 34
M  V30 22 1 9 10
M  V30 23 2 10 11
M  V30 24 1 10 13
M  V30 25 1 11 12
M  V30 26 1 12 36
M  V30 27 1 13 35
M  V30 28 2 15 25
M  V30 29 1 15 16
M  V30 30 2 16 21
M  V30 31 1 16 17
M  V30 32 1 17 37
M  V30 33 2 17 18
M  V30 34 1 18 38
M  V30 35 1 18 19
M  V30 36 1 19 24
M  V30 37 2 19 20
M  V30 38 1 20 22
M  V30 39 1 20 21
M  V30 40 1 21 39
M  V30 41 1 22 23
M  V30 42 1 22 40
M  V30 43 2 23 24
M  V30 END BOND
M  V30 END CTAB
M  END
> <s_m_entry_id>
178

> <i_f3d_flags>
0

> <r_lp_tautomer_probability>
0.445167305578026

> <r_epik_Ionization_Penalty>
  0.3542

> <r_epik_State_Penalty>
  0.4133

> <i_epik_Tot_Q>
0

> <r_i_docking_score>
-5.84040302916067

> <r_i_glide_gscore>
-6.25370302916067

> <r_i_glide_emodel>
-62.6068163021072

> <s_m_subgroup_title>
nsp13-core1_lib_top-500_pv

> <s_m_subgroupid>
nsp13-core1_lib_top-500_pv

> <b_m_subgroup_collapsed>
0

$$$$
Core_1_EN300-145616_EN300-145616
                    3D
 Schrodinger Suite 2023-1.
  0  0  0     0  0            999 V3000
M  V30 BEGIN CTAB
M  V30 COUNTS 42 44 0 0 0
M  V30 BEGIN ATOM
M  V30 1 C  -43.2109 36.6828 -2.7305 0
M  V30 2 C  -43.9829 35.3900 -2.4961 0
M  V30 3 N  -43.0232 34.2998 -2.6406 0
M  V30 4 C  -41.6607 34.8255 -2.7548 0
M  V30 5 C  -41.7634 36.3222 -2.4159 0 CFG=1
M  V30 6 N  -40.8586 37.1447 -3.2103 0
M  V30 7 C  -39.7521 37.7610 -2.7596 0
M  V30 8 C  -39.1369 38.6560 -3.7425 0
M  V30 9 C  -38.1301 39.4838 -3.3638 0
M  V30 10 N  -37.5052 40.3562 -4.2656 0
M  V30 11 C  -37.8906 40.3692 -5.4841 0
M  V30 12 C  -38.9892 39.4778 -6.0239 0
M  V30 13 N  -39.5513 38.6836 -5.0886 0
M  V30 14 O  -39.3163 39.4839 -7.2101 0
M  V30 15 O  -39.3322 37.5875 -1.6167 0
M  V30 16 C  -43.3980 33.0041 -2.6160 0
M  V30 17 C  -42.3113 31.9173 -2.6924 0
M  V30 18 C  -42.8292 30.4697 -2.5294 0
M  V30 19 C  -43.4936 29.9053 -3.7552 0
M  V30 20 C  -42.9407 29.0842 -4.7106 0
M  V30 21 N  -43.9519 28.8077 -5.6104 0
M  V30 22 C  -45.0256 29.4852 -5.2091 0
M  V30 23 N  -44.8289 30.1616 -4.0838 0
M  V30 24 O  -44.5840 32.6834 -2.5197 0
M  V30 25 H  -43.3189 36.9715 -3.7792 0
M  V30 26 H  -43.5825 37.5089 -2.1217 0
M  V30 27 H  -44.8046 35.2936 -3.2031 0
M  V30 28 H  -44.3982 35.3690 -1.4874 0
M  V30 29 H  -40.9635 34.3272 -2.0794 0
M  V30 30 H  -41.3085 34.6684 -3.7757 0
M  V30 31 H  -41.5995 36.4576 -1.3448 0
M  V30 32 H  -41.1502 37.3083 -4.1649 0
M  V30 33 H  -37.7578 39.5139 -2.3490 0
M  V30 34 H  -37.4027 41.0510 -6.1854 0
M  V30 35 H  -41.6116 32.1049 -1.8778 0
M  V30 36 H  -41.7469 32.0187 -3.6192 0
M  V30 37 H  -43.5040 30.4059 -1.6750 0
M  V30 38 H  -41.9833 29.8340 -2.2629 0
M  V30 39 H  -41.9501 28.6831 -4.8160 0
M  V30 40 H  -43.8733 28.2616 -6.4613 0
M  V30 41 H  -45.9623 29.4837 -5.7428 0
M  V30 42 H  -40.2867 38.0529 -5.3843 0
M  V30 END ATOM
M  V30 BEGIN BOND
M  V30 1 1 1 2
M  V30 2 1 1 5
M  V30 3 1 1 25
M  V30 4 1 1 26
M  V30 5 1 2 3
M  V30 6 1 2 27
M  V30 7 1 2 28
M  V30 8 1 3 4
M  V30 9 1 3 16
M  V30 10 1 4 5
M  V30 11 1 4 29
M  V30 12 1 4 30
M  V30 13 1 5 6
M  V30 14 1 5 31
M  V30 15 1 6 7
M  V30 16 1 6 32
M  V30 17 2 7 15
M  V30 18 1 7 8
M  V30 19 2 8 9
M  V30 20 1 8 13
M  V30 21 1 9 10
M  V30 22 1 9 33
M  V30 23 2 10 11
M  V30 24 1 11 12
M  V30 25 1 11 34
M  V30 26 2 12 14
M  V30 27 1 12 13
M  V30 28 1 13 42
M  V30 29 1 16 17
M  V30 30 2 16 24
M  V30 31 1 17 18
M  V30 32 1 17 35
M  V30 33 1 17 36
M  V30 34 1 18 19
M  V30 35 1 18 37
M  V30 36 1 18 38
M  V30 37 2 19 20
M  V30 38 1 19 23
M  V30 39 1 20 21
M  V30 40 1 20 39
M  V30 41 1 21 22
M  V30 42 1 21 40
M  V30 43 2 22 23
M  V30 44 1 22 41
M  V30 END BOND
M  V30 END CTAB
M  END
> <s_m_entry_id>
179

> <i_f3d_flags>
0

> <r_lp_tautomer_probability>
0.264505554616646

> <r_epik_Ionization_Penalty>
  0.8232

> <r_epik_State_Penalty>
  0.4166

> <i_epik_Tot_Q>
0

> <r_i_docking_score>
-5.8385745921201

> <r_i_glide_gscore>
-6.2551745921201

> <r_i_glide_emodel>
-61.8931950927132

> <s_m_subgroup_title>
nsp13-core1_lib_top-500_pv

> <s_m_subgroupid>
nsp13-core1_lib_top-500_pv

> <b_m_subgroup_collapsed>
0

$$$$
Core_1_EN300-113009_EN300-113009
                    3D
 Schrodinger Suite 2023-1.
  0  0  0     0  0            999 V3000
M  V30 BEGIN CTAB
M  V30 COUNTS 48 51 0 0 0
M  V30 BEGIN ATOM
M  V30 1 C  -44.2244 41.3260 -6.9935 0
M  V30 2 S  -42.6334 41.5132 -7.9267 0 CFG=1
M  V30 3 C  -41.6004 40.5346 -6.7399 0
M  V30 4 C  -40.1194 40.7632 -7.0822 0
M  V30 5 C  -39.2001 39.8699 -6.2499 0
M  V30 6 N  -39.2747 39.9980 -4.9176 0
M  V30 7 C  -38.5571 39.1666 -3.9585 0 CFG=1
M  V30 8 C  -38.4882 39.8238 -2.5865 0
M  V30 9 C  -38.4821 38.6554 -1.6052 0
M  V30 10 N  -39.1580 37.5453 -2.2778 0
M  V30 11 C  -39.2757 37.8308 -3.7093 0
M  V30 12 C  -39.5510 36.4407 -1.5970 0
M  V30 13 C  -40.4215 35.3923 -2.2418 0
M  V30 14 C  -40.5551 35.0374 -3.6103 0
M  V30 15 N  -41.3210 33.9674 -3.7524 0
M  V30 16 N  -41.6566 33.5838 -2.4984 0
M  V30 17 C  -41.1447 34.4580 -1.5559 0
M  V30 18 C  -42.3585 32.3745 -2.2737 0
M  V30 19 C  -42.1167 31.5915 -1.1122 0
M  V30 20 N  -42.6609 30.3979 -0.8104 0
M  V30 21 C  -43.5511 29.8838 -1.6670 0
M  V30 22 C  -43.9147 30.5479 -2.8497 0
M  V30 23 N  -44.7510 30.3029 -3.8540 0
M  V30 24 N  -44.6159 31.3810 -4.7178 0
M  V30 25 N  -43.7783 32.2802 -4.2944 0
M  V30 26 N  -43.3080 31.7773 -3.1241 0
M  V30 27 O  -39.2701 36.2929 -0.4065 0
M  V30 28 O  -38.4379 39.0838 -6.8102 0
M  V30 29 O  -42.7514 40.6836 -9.2076 0
M  V30 30 H  -44.1561 41.8293 -6.0299 0
M  V30 31 H  -44.4476 40.2743 -6.8102 0
M  V30 32 H  -45.0474 41.7682 -7.5549 0
M  V30 33 H  -41.8156 40.8652 -5.7232 0
M  V30 34 H  -41.8747 39.4824 -6.8105 0
M  V30 35 H  -39.9475 40.5514 -8.1383 0
M  V30 36 H  -39.8467 41.8073 -6.9221 0
M  V30 37 H  -39.9093 40.6858 -4.5393 0
M  V30 38 H  -37.5394 38.9753 -4.3046 0
M  V30 39 H  -37.6201 40.4743 -2.4724 0
M  V30 40 H  -39.3784 40.4300 -2.4104 0
M  V30 41 H  -37.4594 38.3562 -1.3704 0
M  V30 42 H  -38.9706 38.9286 -0.6689 0
M  V30 43 H  -40.3304 37.8823 -3.9872 0
M  V30 44 H  -38.7919 37.0603 -4.3074 0
M  V30 45 H  -40.1311 35.4685 -4.5021 0
M  V30 46 H  -41.2818 34.3165 -0.4931 0
M  V30 47 H  -41.4068 31.9360 -0.3745 0
M  V30 48 H  -43.9795 28.9247 -1.4182 0
M  V30 END ATOM
M  V30 BEGIN BOND
M  V30 1 1 1 2
M  V30 2 1 1 30
M  V30 3 1 1 31
M  V30 4 1 1 32
M  V30 5 1 2 3
M  V30 6 2 2 29
M  V30 7 1 3 4
M  V30 8 1 3 33
M  V30 9 1 3 34
M  V30 10 1 4 5
M  V30 11 1 4 35
M  V30 12 1 4 36
M  V30 13 1 5 6
M  V30 14 2 5 28
M  V30 15 1 6 7
M  V30 16 1 6 37
M  V30 17 1 7 8
M  V30 18 1 7 11
M  V30 19 1 7 38
M  V30 20 1 8 9
M  V30 21 1 8 39
M  V30 22 1 8 40
M  V30 23 1 9 10
M  V30 24 1 9 41
M  V30 25 1 9 42
M  V30 26 1 10 11
M  V30 27 1 10 12
M  V30 28 1 11 43
M  V30 29 1 11 44
M  V30 30 1 12 13
M  V30 31 2 12 27
M  V30 32 1 13 14
M  V30 33 2 13 17
M  V30 34 2 14 15
M  V30 35 1 14 45
M  V30 36 1 15 16
M  V30 37 1 16 17
M  V30 38 1 16 18
M  V30 39 1 17 46
M  V30 40 2 18 19
M  V30 41 1 18 26
M  V30 42 1 19 20
M  V30 43 1 19 47
M  V30 44 2 20 21
M  V30 45 1 21 22
M  V30 46 1 21 48
M  V30 47 2 22 23
M  V30 48 1 22 26
M  V30 49 1 23 24
M  V30 50 2 24 25
M  V30 51 1 25 26
M  V30 END BOND
M  V30 END CTAB
M  END
> <s_m_entry_id>
180

> <i_f3d_flags>
0

> <r_lp_tautomer_probability>
1

> <r_epik_Ionization_Penalty>
  0.0000

> <r_epik_State_Penalty>
  0.0000

> <i_epik_Tot_Q>
0

> <r_i_docking_score>
-5.8367495139066

> <r_i_glide_gscore>
-5.8367495139066

> <r_i_glide_emodel>
-66.2764652813809

> <s_m_subgroup_title>
nsp13-core1_lib_top-500_pv

> <s_m_subgroupid>
nsp13-core1_lib_top-500_pv

> <b_m_subgroup_collapsed>
0

$$$$
Core_1_EN300-7407738_EN300-7407738
                    3D
 Schrodinger Suite 2023-1.
  0  0  0     0  0            999 V3000
M  V30 BEGIN CTAB
M  V30 COUNTS 42 44 0 0 0
M  V30 BEGIN ATOM
M  V30 1 C  -43.4449 28.2391 -5.1463 0
M  V30 2 N  -43.7733 29.4564 -4.4446 0
M  V30 3 C  -43.2359 29.9079 -3.2479 0
M  V30 4 C  -43.8320 31.1223 -2.9847 0
M  V30 5 C  -43.5992 32.0615 -1.8409 0
M  V30 6 C  -42.3200 32.8678 -2.0976 0
M  V30 7 N  -42.3877 34.1801 -2.4063 0
M  V30 8 C  -43.5998 34.9727 -2.6068 0
M  V30 9 C  -43.1272 36.3765 -3.0016 0
M  V30 10 C  -41.7006 36.4600 -2.4603 0 CFG=1
M  V30 11 C  -41.1969 35.0180 -2.5253 0
M  V30 12 N  -40.8400 37.3716 -3.2107 0
M  V30 13 C  -39.8072 38.0417 -2.6737 0
M  V30 14 C  -39.0642 38.9872 -3.5755 0
M  V30 15 C  -38.6219 40.2298 -3.0617 0
M  V30 16 N  -37.8794 41.0905 -3.7913 0
M  V30 17 C  -37.5517 40.6912 -5.0376 0
M  V30 18 C  -37.9679 39.4478 -5.5599 0
M  V30 19 N  -38.7400 38.5976 -4.8373 0
M  V30 20 O  -37.5555 39.0838 -6.8096 0
M  V30 21 O  -39.4923 37.9505 -1.4877 0
M  V30 22 O  -41.2435 32.2835 -2.0103 0
M  V30 23 N  -44.7513 31.4192 -3.9870 0
M  V30 24 C  -44.6640 30.3837 -4.8103 0
M  V30 25 H  -43.1516 27.4834 -4.4214 0
M  V30 26 H  -44.3082 27.8808 -5.7097 0
M  V30 27 H  -42.6158 28.4187 -5.8309 0
M  V30 28 H  -42.4821 29.3553 -2.7010 0
M  V30 29 H  -44.4654 32.7000 -1.6752 0
M  V30 30 H  -43.4664 31.4990 -0.9161 0
M  V30 31 H  -44.2490 34.5388 -3.3671 0
M  V30 32 H  -44.1563 35.0208 -1.6702 0
M  V30 33 H  -43.1403 36.4701 -4.0858 0
M  V30 34 H  -43.7703 37.1614 -2.6026 0
M  V30 35 H  -41.7655 36.7612 -1.4124 0
M  V30 36 H  -40.4708 34.8218 -1.7358 0
M  V30 37 H  -40.7176 34.8045 -3.4824 0
M  V30 38 H  -41.0228 37.4840 -4.2018 0
M  V30 39 H  -38.8586 40.5370 -2.0534 0
M  V30 40 H  -36.9390 41.3658 -5.6179 0
M  V30 41 H  -45.2638 30.2968 -5.7032 0
M  V30 42 H  -36.9315 39.6988 -7.1848 0
M  V30 END ATOM
M  V30 BEGIN BOND
M  V30 1 1 1 2
M  V30 2 1 1 25
M  V30 3 1 1 26
M  V30 4 1 1 27
M  V30 5 1 2 3
M  V30 6 1 2 24
M  V30 7 2 3 4
M  V30 8 1 3 28
M  V30 9 1 4 5
M  V30 10 1 4 23
M  V30 11 1 5 6
M  V30 12 1 5 29
M  V30 13 1 5 30
M  V30 14 1 6 7
M  V30 15 2 6 22
M  V30 16 1 7 8
M  V30 17 1 7 11
M  V30 18 1 8 9
M  V30 19 1 8 31
M  V30 20 1 8 32
M  V30 21 1 9 10
M  V30 22 1 9 33
M  V30 23 1 9 34
M  V30 24 1 10 11
M  V30 25 1 10 12
M  V30 26 1 10 35
M  V30 27 1 11 36
M  V30 28 1 11 37
M  V30 29 1 12 13
M  V30 30 1 12 38
M  V30 31 2 13 21
M  V30 32 1 13 14
M  V30 33 2 14 15
M  V30 34 1 14 19
M  V30 35 1 15 16
M  V30 36 1 15 39
M  V30 37 2 16 17
M  V30 38 1 17 18
M  V30 39 1 17 40
M  V30 40 1 18 20
M  V30 41 2 18 19
M  V30 42 1 20 42
M  V30 43 2 23 24
M  V30 44 1 24 41
M  V30 END BOND
M  V30 END CTAB
M  END
> <s_m_entry_id>
182

> <i_f3d_flags>
0

> <r_lp_tautomer_probability>
1

> <r_epik_Ionization_Penalty>
  2.5492

> <r_epik_State_Penalty>
  0.0000

> <i_epik_Tot_Q>
0

> <r_i_docking_score>
-5.83492601159807

> <r_i_glide_gscore>
-5.83492601159807

> <r_i_glide_emodel>
-55.4885089434908

> <s_m_subgroup_title>
nsp13-core1_lib_top-500_pv

> <s_m_subgroupid>
nsp13-core1_lib_top-500_pv

> <b_m_subgroup_collapsed>
0

$$$$
Core_1_EN300-35555_EN300-35555
                    3D
 Schrodinger Suite 2023-1.
  0  0  0     0  0            999 V3000
M  V30 BEGIN CTAB
M  V30 COUNTS 61 65 0 0 0
M  V30 BEGIN ATOM
M  V30 1 C  -43.8390 46.6101 -10.6327 0
M  V30 2 C  -43.5251 45.4398 -9.7224 0
M  V30 3 C  -44.3847 44.3239 -9.6820 0
M  V30 4 C  -44.0979 43.2418 -8.8278 0
M  V30 5 C  -42.9518 43.2600 -7.9981 0
M  V30 6 C  -42.0904 44.3806 -8.0530 0
M  V30 7 C  -42.3779 45.4656 -8.9045 0
M  V30 8 N  -42.6125 42.1450 -7.1689 0
M  V30 9 C  -43.5825 41.5583 -6.3904 0
M  V30 10 C  -43.2022 40.2959 -5.6005 0
M  V30 11 N  -41.8264 39.8838 -5.8220 0
M  V30 12 C  -40.9509 40.6927 -6.5218 0
M  V30 13 C  -39.5177 40.2321 -6.5456 0
M  V30 14 N  -38.8342 40.2030 -5.3781 0
M  V30 15 C  -37.4582 39.7096 -5.3167 0
M  V30 16 C  -37.0002 39.8814 -3.8688 0
M  V30 17 C  -38.2939 39.9602 -3.0665 0 CFG=1
M  V30 18 C  -39.2916 40.5971 -4.0412 0
M  V30 19 N  -38.7514 38.6248 -2.7013 0
M  V30 20 C  -39.7137 38.3410 -1.8124 0
M  V30 21 C  -40.1746 36.9135 -1.8155 0
M  V30 22 C  -40.6319 36.3141 -0.6231 0
M  V30 23 C  -41.1076 34.9883 -0.6292 0
M  V30 24 C  -41.1502 34.2466 -1.8268 0
M  V30 25 C  -41.6367 32.8598 -1.7914 0
M  V30 26 C  -42.5518 32.2538 -2.5771 0
M  V30 27 C  -43.4024 32.8409 -3.6107 0
M  V30 28 N  -44.3508 32.0131 -4.0949 0 CHG=-1
M  V30 29 C  -44.3513 30.7947 -3.5959 0
M  V30 30 O  -45.1513 29.8838 -3.7837 0
M  V30 31 S  -43.0229 30.5717 -2.4336 0
M  V30 32 O  -43.2781 33.9957 -4.0102 0
M  V30 33 C  -40.6844 34.8427 -3.0172 0
M  V30 34 C  -40.2125 36.1680 -3.0170 0
M  V30 35 O  -40.1930 39.1705 -1.0380 0
M  V30 36 O  -39.0126 39.8855 -7.6103 0
M  V30 37 N  -41.2633 41.7641 -7.1833 0
M  V30 38 O  -44.7256 41.9965 -6.2575 0
M  V30 39 H  -44.3648 46.2776 -11.5280 0
M  V30 40 H  -44.4679 47.3321 -10.1104 0
M  V30 41 H  -42.9267 47.1158 -10.9481 0
M  V30 42 H  -45.2685 44.2940 -10.3025 0
M  V30 43 H  -44.7656 42.3939 -8.8102 0
M  V30 44 H  -41.2050 44.4150 -7.4352 0
M  V30 45 H  -41.7143 46.3179 -8.9261 0
M  V30 46 H  -43.8690 39.4841 -5.8881 0
M  V30 47 H  -43.3543 40.4797 -4.5369 0
M  V30 48 H  -41.6190 38.9093 -5.6104 0
M  V30 49 H  -36.8066 40.2446 -6.0100 0
M  V30 50 H  -37.4464 38.6562 -5.5949 0
M  V30 51 H  -36.4595 40.8236 -3.7728 0
M  V30 52 H  -36.3283 39.0882 -3.5386 0
M  V30 53 H  -38.1647 40.5630 -2.1656 0
M  V30 54 H  -40.3157 40.3096 -3.8081 0
M  V30 55 H  -39.2398 41.6841 -3.9717 0
M  V30 56 H  -38.4063 37.8566 -3.2571 0
M  V30 57 H  -40.6236 36.8693 0.3046 0
M  V30 58 H  -41.4514 34.5434 0.2930 0
M  V30 59 H  -41.1533 32.2384 -1.0517 0
M  V30 60 H  -40.6986 34.2857 -3.9428 0
M  V30 61 H  -39.8959 36.6023 -3.9539 0
M  V30 END ATOM
M  V30 BEGIN BOND
M  V30 1 1 1 2
M  V30 2 1 1 39
M  V30 3 1 1 40
M  V30 4 1 1 41
M  V30 5 2 2 3
M  V30 6 1 2 7
M  V30 7 1 3 4
M  V30 8 1 3 42
M  V30 9 2 4 5
M  V30 10 1 4 43
M  V30 11 1 5 6
M  V30 12 1 5 8
M  V30 13 2 6 7
M  V30 14 1 6 44
M  V30 15 1 7 45
M  V30 16 1 8 9
M  V30 17 1 8 37
M  V30 18 1 9 10
M  V30 19 2 9 38
M  V30 20 1 10 11
M  V30 21 1 10 46
M  V30 22 1 10 47
M  V30 23 1 11 12
M  V30 24 1 11 48
M  V30 25 1 12 13
M  V30 26 2 12 37
M  V30 27 1 13 14
M  V30 28 2 13 36
M  V30 29 1 14 15
M  V30 30 1 14 18
M  V30 31 1 15 16
M  V30 32 1 15 49
M  V30 33 1 15 50
M  V30 34 1 16 17
M  V30 35 1 16 51
M  V30 36 1 16 52
M  V30 37 1 17 18
M  V30 38 1 17 19
M  V30 39 1 17 53
M  V30 40 1 18 54
M  V30 41 1 18 55
M  V30 42 1 19 20
M  V30 43 1 19 56
M  V30 44 1 20 21
M  V30 45 2 20 35
M  V30 46 2 21 22
M  V30 47 1 21 34
M  V30 48 1 22 23
M  V30 49 1 22 57
M  V30 50 2 23 24
M  V30 51 1 23 58
M  V30 52 1 24 25
M  V30 53 1 24 33
M  V30 54 2 25 26 CFG=2
M  V30 55 1 25 59
M  V30 56 1 26 27
M  V30 57 1 26 31
M  V30 58 1 27 28
M  V30 59 2 27 32
M  V30 60 1 28 29
M  V30 61 2 29 30
M  V30 62 1 29 31
M  V30 63 2 33 34
M  V30 64 1 33 60
M  V30 65 1 34 61
M  V30 END BOND
M  V30 END CTAB
M  END
> <s_m_entry_id>
184

> <i_f3d_flags>
0

> <r_lp_tautomer_probability>
0.999999912420008

> <r_epik_Ionization_Penalty>
  0.0630

> <r_epik_State_Penalty>
  0.0630

> <i_epik_Tot_Q>
-1

> <r_i_docking_score>
-5.83059475947087

> <r_i_glide_gscore>
-5.89359475947087

> <r_i_glide_emodel>
-64.0125144269823

> <s_m_subgroup_title>
nsp13-core1_lib_top-500_pv

> <s_m_subgroupid>
nsp13-core1_lib_top-500_pv

> <b_m_subgroup_collapsed>
0

$$$$
Core_1_EN300-371657_EN300-371657
                    3D
 Schrodinger Suite 2023-1.
  0  0  0     0  0            999 V3000
M  V30 BEGIN CTAB
M  V30 COUNTS 46 50 0 0 0
M  V30 BEGIN ATOM
M  V30 1 C  -41.1421 37.1248 -0.7324 0
M  V30 2 C  -40.3139 38.4028 -0.8547 0
M  V30 3 N  -39.8225 38.4486 -2.2312 0
M  V30 4 C  -40.3583 37.3248 -3.0046 0
M  V30 5 C  -41.5193 36.7708 -2.1672 0 CFG=1
M  V30 6 N  -41.6848 35.3295 -2.3141 0
M  V30 7 C  -42.7111 34.7314 -2.9371 0
M  V30 8 C  -42.7503 33.2367 -2.8340 0
M  V30 9 C  -42.3032 32.5848 -1.6604 0
M  V30 10 C  -42.3515 31.1832 -1.5675 0
M  V30 11 C  -42.8515 30.4389 -2.6463 0
M  V30 12 C  -43.3408 31.0606 -3.8322 0
M  V30 13 C  -43.7930 30.0274 -4.7229 0
M  V30 14 C  -43.5505 28.8346 -4.0966 0
M  V30 15 N  -43.0072 29.0838 -2.8464 0
M  V30 16 C  -43.2876 32.4709 -3.8951 0
M  V30 17 O  -43.5523 35.3320 -3.6071 0
M  V30 18 C  -38.9176 39.3675 -2.6285 0
M  V30 19 C  -38.6153 39.4729 -4.0802 0
M  V30 20 C  -37.3774 39.4837 -4.6680 0
M  V30 21 N  -37.5514 39.7100 -6.0246 0
M  V30 22 C  -38.8840 39.8863 -6.3260 0
M  V30 23 C  -39.5909 39.7708 -5.0999 0
M  V30 24 C  -40.9847 39.9964 -5.1988 0
M  V30 25 N  -41.5296 40.2839 -6.4035 0
M  V30 26 C  -40.7369 40.3344 -7.4760 0
M  V30 27 N  -39.4158 40.1539 -7.5512 0
M  V30 28 O  -38.3584 40.1217 -1.8320 0
M  V30 29 H  -40.5153 36.3409 -0.2982 0
M  V30 30 H  -42.0126 37.2440 -0.0820 0
M  V30 31 H  -39.4988 38.4085 -0.1273 0
M  V30 32 H  -40.9349 39.2810 -0.6657 0
M  V30 33 H  -40.6951 37.5883 -4.0067 0
M  V30 34 H  -39.5672 36.5812 -3.1141 0
M  V30 35 H  -42.4355 37.3095 -2.4251 0
M  V30 36 H  -41.0152 34.7410 -1.8382 0
M  V30 37 H  -41.9281 33.1464 -0.8163 0
M  V30 38 H  -42.0067 30.6840 -0.6731 0
M  V30 39 H  -44.2232 30.1682 -5.7014 0
M  V30 40 H  -43.7352 27.8272 -4.4397 0
M  V30 41 H  -42.7490 28.3561 -2.1799 0
M  V30 42 H  -43.6522 32.9619 -4.7850 0
M  V30 43 H  -36.3939 39.3649 -4.2345 0
M  V30 44 H  -36.7885 39.8306 -6.6833 0
M  V30 45 H  -41.6403 39.9482 -4.3410 0
M  V30 46 H  -41.2319 40.5625 -8.4104 0
M  V30 END ATOM
M  V30 BEGIN BOND
M  V30 1 1 1 2
M  V30 2 1 1 5
M  V30 3 1 1 29
M  V30 4 1 1 30
M  V30 5 1 2 3
M  V30 6 1 2 31
M  V30 7 1 2 32
M  V30 8 1 3 4
M  V30 9 1 3 18
M  V30 10 1 4 5
M  V30 11 1 4 33
M  V30 12 1 4 34
M  V30 13 1 5 6
M  V30 14 1 5 35
M  V30 15 1 6 7
M  V30 16 1 6 36
M  V30 17 1 7 8
M  V30 18 2 7 17
M  V30 19 2 8 9
M  V30 20 1 8 16
M  V30 21 1 9 10
M  V30 22 1 9 37
M  V30 23 2 10 11
M  V30 24 1 10 38
M  V30 25 1 11 12
M  V30 26 1 11 15
M  V30 27 1 12 13
M  V30 28 2 12 16
M  V30 29 2 13 14
M  V30 30 1 13 39
M  V30 31 1 14 15
M  V30 32 1 14 40
M  V30 33 1 15 41
M  V30 34 1 16 42
M  V30 35 1 18 19
M  V30 36 2 18 28
M  V30 37 2 19 20
M  V30 38 1 19 23
M  V30 39 1 20 21
M  V30 40 1 20 43
M  V30 41 1 21 22
M  V30 42 1 21 44
M  V30 43 2 22 23
M  V30 44 1 22 27
M  V30 45 1 23 24
M  V30 46 2 24 25
M  V30 47 1 24 45
M  V30 48 1 25 26
M  V30 49 2 26 27
M  V30 50 1 26 46
M  V30 END BOND
M  V30 END CTAB
M  END
> <s_m_entry_id>
185

> <i_f3d_flags>
0

> <r_lp_tautomer_probability>
1

> <r_epik_Ionization_Penalty>
  0.0000

> <r_epik_State_Penalty>
  0.0000

> <i_epik_Tot_Q>
0

> <r_i_docking_score>
-5.82961701133269

> <r_i_glide_gscore>
-5.82961701133269

> <r_i_glide_emodel>
-55.0539932380383

> <s_m_subgroup_title>
nsp13-core1_lib_top-500_pv

> <s_m_subgroupid>
nsp13-core1_lib_top-500_pv

> <b_m_subgroup_collapsed>
0

$$$$
Core_1_EN300-33482_EN300-33482
                    3D
 Schrodinger Suite 2023-1.
  0  0  0     0  0            999 V3000
M  V30 BEGIN CTAB
M  V30 COUNTS 51 53 0 0 0
M  V30 BEGIN ATOM
M  V30 1 C  -46.4390 39.1138 -2.4678 0
M  V30 2 C  -46.2508 40.1596 -3.5720 0
M  V30 3 N  -44.9511 39.8836 -4.1761 0
M  V30 4 C  -44.3733 38.6631 -3.6098 0
M  V30 5 C  -45.5162 37.9647 -2.8650 0 CFG=1
M  V30 6 N  -45.0498 37.2069 -1.7068 0
M  V30 7 C  -44.3405 36.0685 -1.7613 0
M  V30 8 C  -43.9296 35.4708 -0.4085 0
M  V30 9 C  -43.2592 34.0851 -0.4917 0
M  V30 10 S  -44.4893 32.7403 -0.7552 0
M  V30 11 N  -43.5901 31.3147 -0.4115 0 CFG=1
M  V30 12 C  -42.4036 30.9384 -1.1878 0
M  V30 13 C  -42.7583 30.4236 -2.5473 0
M  V30 14 C  -43.0048 31.0606 -3.7309 0
M  V30 15 C  -43.3666 30.0135 -4.6243 0
M  V30 16 N  -43.2930 28.8172 -4.0716 0
M  V30 17 N  -42.9103 29.0838 -2.8103 0
M  V30 18 O  -44.8631 32.7013 -2.1749 0
M  V30 19 O  -45.5378 32.8583 0.2685 0
M  V30 20 O  -44.0112 35.5333 -2.8205 0
M  V30 21 C  -44.4348 40.5972 -5.1989 0
M  V30 22 C  -43.0879 40.1458 -5.7768 0
M  V30 23 S  -42.5727 41.0010 -7.2954 0
M  V30 24 C  -40.8548 40.6350 -7.2221 0
M  V30 25 N  -39.9082 41.4774 -7.6097 0
M  V30 26 C  -38.7918 40.7577 -7.2974 0
M  V30 27 N  -39.0034 39.5370 -6.8102 0
M  V30 28 N  -40.3516 39.4838 -6.7668 0
M  V30 29 O  -45.0081 41.5809 -5.6670 0
M  V30 30 H  -47.4783 38.8013 -2.3601 0
M  V30 31 H  -46.1211 39.5432 -1.5160 0
M  V30 32 H  -47.0248 40.0525 -4.3338 0
M  V30 33 H  -46.3043 41.1754 -3.1775 0
M  V30 34 H  -43.5716 38.9472 -2.9259 0
M  V30 35 H  -43.9513 37.9859 -4.3532 0
M  V30 36 H  -46.0478 37.3122 -3.5597 0
M  V30 37 H  -45.2739 37.5792 -0.7960 0
M  V30 38 H  -44.7968 35.4324 0.2541 0
M  V30 39 H  -43.2279 36.1706 0.0485 0
M  V30 40 H  -42.7509 33.8694 0.4490 0
M  V30 41 H  -42.5159 34.0411 -1.2884 0
M  V30 42 H  -43.5513 31.0829 0.5953 0
M  V30 43 H  -41.8717 30.1660 -0.6307 0
M  V30 44 H  -41.7256 31.7875 -1.2642 0
M  V30 45 H  -42.9773 32.1233 -3.9171 0
M  V30 46 H  -43.6812 30.0871 -5.6502 0
M  V30 47 H  -42.7514 28.3450 -2.1257 0
M  V30 48 H  -42.3320 40.2964 -5.0054 0
M  V30 49 H  -43.1219 39.0839 -6.0101 0
M  V30 50 H  -37.7991 41.1549 -7.4320 0
M  V30 51 H  -40.8613 38.6783 -6.4130 0
M  V30 END ATOM
M  V30 BEGIN BOND
M  V30 1 1 1 2
M  V30 2 1 1 5
M  V30 3 1 1 30
M  V30 4 1 1 31
M  V30 5 1 2 3
M  V30 6 1 2 32
M  V30 7 1 2 33
M  V30 8 1 3 4
M  V30 9 1 3 21
M  V30 10 1 4 5
M  V30 11 1 4 34
M  V30 12 1 4 35
M  V30 13 1 5 6
M  V30 14 1 5 36
M  V30 15 1 6 7
M  V30 16 1 6 37
M  V30 17 1 7 8
M  V30 18 2 7 20
M  V30 19 1 8 9
M  V30 20 1 8 38
M  V30 21 1 8 39
M  V30 22 1 9 10
M  V30 23 1 9 40
M  V30 24 1 9 41
M  V30 25 1 10 11
M  V30 26 2 10 18
M  V30 27 2 10 19
M  V30 28 1 11 12
M  V30 29 1 11 42
M  V30 30 1 12 43
M  V30 31 1 12 44
M  V30 32 1 12 13
M  V30 33 1 13 17
M  V30 34 2 13 14
M  V30 35 1 14 15
M  V30 36 1 14 45
M  V30 37 1 15 46
M  V30 38 2 15 16
M  V30 39 1 16 17
M  V30 40 1 17 47
M  V30 41 1 21 22
M  V30 42 2 21 29
M  V30 43 1 22 23
M  V30 44 1 22 48
M  V30 45 1 22 49
M  V30 46 1 23 24
M  V30 47 2 24 25
M  V30 48 1 24 28
M  V30 49 1 25 26
M  V30 50 2 26 27
M  V30 51 1 26 50
M  V30 52 1 27 28
M  V30 53 1 28 51
M  V30 END BOND
M  V30 END CTAB
M  END
> <s_m_entry_id>
186

> <i_f3d_flags>
0

> <r_lp_tautomer_probability>
0.2863003189833

> <r_epik_Ionization_Penalty>
  0.1036

> <r_epik_State_Penalty>
  0.7410

> <i_epik_Tot_Q>
0

> <r_i_docking_score>
-5.82690601768094

> <r_i_glide_gscore>
-6.56790601768094

> <r_i_glide_emodel>
-70.4532429260897

> <s_m_subgroup_title>
nsp13-core1_lib_top-500_pv

> <s_m_subgroupid>
nsp13-core1_lib_top-500_pv

> <b_m_subgroup_collapsed>
0

$$$$
Core_1_EN300-6744029_EN300-6744029
                    3D
 Schrodinger Suite 2023-1.
  0  0  0     0  0            999 V3000
M  V30 BEGIN CTAB
M  V30 COUNTS 43 47 0 0 0
M  V30 BEGIN ATOM
M  V30 1 C  -39.9346 35.3129 -3.6109 0
M  V30 2 C  -39.5519 36.7659 -3.8386 0
M  V30 3 N  -40.5991 37.5646 -3.2088 0
M  V30 4 C  -41.4509 36.7269 -2.3565 0
M  V30 5 C  -40.7831 35.3348 -2.3448 0 CFG=1
M  V30 6 N  -41.6482 34.1536 -2.2628 0
M  V30 7 C  -42.7259 33.8575 -3.0074 0
M  V30 8 C  -42.9826 32.4226 -3.2067 0
M  V30 9 C  -42.5294 31.3200 -2.4775 0
M  V30 10 C  -42.9994 30.2922 -3.2315 0
M  V30 11 C  -43.6813 30.7232 -4.2613 0
M  V30 12 C  -44.0790 29.6349 -5.0749 0
M  V30 13 C  -43.5500 28.5318 -4.4103 0
M  V30 14 N  -42.8761 28.9376 -3.2390 0
M  V30 15 O  -43.7451 32.0645 -4.3259 0
M  V30 16 O  -43.4009 34.6862 -3.6107 0
M  V30 17 C  -40.7989 38.8875 -3.4022 0
M  V30 18 C  -39.7512 39.6019 -4.1991 0
M  V30 19 C  -38.4103 39.7090 -3.7018 0
M  V30 20 C  -37.5509 40.3441 -4.5544 0
M  V30 21 S  -38.3584 40.8507 -6.0066 0
M  V30 22 C  -39.8915 40.2228 -5.4324 0
M  V30 23 N  -41.0941 40.3348 -6.1829 0
M  V30 24 C  -42.3802 40.4691 -5.8334 0
M  V30 25 N  -43.1616 40.6847 -6.8800 0
M  V30 26 N  -42.2788 40.6836 -7.9415 0
M  V30 27 N  -41.0566 40.4633 -7.5364 0
M  V30 28 O  -41.7494 39.4901 -2.9039 0
M  V30 29 H  -39.0595 34.6658 -3.5317 0
M  V30 30 H  -40.5261 34.9748 -4.4607 0
M  V30 31 H  -38.6130 36.9837 -3.3339 0
M  V30 32 H  -39.4366 36.9778 -4.9015 0
M  V30 33 H  -42.4545 36.7339 -2.7766 0
M  V30 34 H  -41.5206 37.1339 -1.3464 0
M  V30 35 H  -40.1091 35.2988 -1.4887 0
M  V30 36 H  -41.2359 33.3679 -1.7812 0
M  V30 37 H  -41.9200 31.2860 -1.5850 0
M  V30 38 H  -44.6231 29.6445 -6.0074 0
M  V30 39 H  -43.5904 27.4842 -4.6736 0
M  V30 40 H  -42.3988 28.3540 -2.5574 0
M  V30 41 H  -38.1189 39.3083 -2.7404 0
M  V30 42 H  -36.4969 40.5373 -4.4180 0
M  V30 43 H  -42.7598 40.4750 -4.8263 0
M  V30 END ATOM
M  V30 BEGIN BOND
M  V30 1 1 1 2
M  V30 2 1 1 5
M  V30 3 1 1 29
M  V30 4 1 1 30
M  V30 5 1 2 3
M  V30 6 1 2 31
M  V30 7 1 2 32
M  V30 8 1 3 4
M  V30 9 1 3 17
M  V30 10 1 4 5
M  V30 11 1 4 33
M  V30 12 1 4 34
M  V30 13 1 5 6
M  V30 14 1 5 35
M  V30 15 1 6 7
M  V30 16 1 6 36
M  V30 17 1 7 8
M  V30 18 2 7 16
M  V30 19 2 8 9
M  V30 20 1 8 15
M  V30 21 1 9 10
M  V30 22 1 9 37
M  V30 23 2 10 11
M  V30 24 1 10 14
M  V30 25 1 11 12
M  V30 26 1 11 15
M  V30 27 2 12 13
M  V30 28 1 12 38
M  V30 29 1 13 14
M  V30 30 1 13 39
M  V30 31 1 14 40
M  V30 32 1 17 18
M  V30 33 2 17 28
M  V30 34 1 18 19
M  V30 35 2 18 22
M  V30 36 2 19 20
M  V30 37 1 19 41
M  V30 38 1 20 21
M  V30 39 1 20 42
M  V30 40 1 21 22
M  V30 41 1 22 23
M  V30 42 1 23 24
M  V30 43 1 23 27
M  V30 44 2 24 25
M  V30 45 1 24 43
M  V30 46 1 25 26
M  V30 47 2 26 27
M  V30 END BOND
M  V30 END CTAB
M  END
> <s_m_entry_id>
190

> <i_f3d_flags>
0

> <r_lp_tautomer_probability>
1

> <r_epik_Ionization_Penalty>
  0.0000

> <r_epik_State_Penalty>
  0.0000

> <i_epik_Tot_Q>
0

> <r_i_docking_score>
-5.82430003074949

> <r_i_glide_gscore>
-5.82430003074949

> <r_i_glide_emodel>
-56.9254346526262

> <s_m_subgroup_title>
nsp13-core1_lib_top-500_pv

> <s_m_subgroupid>
nsp13-core1_lib_top-500_pv

> <b_m_subgroup_collapsed>
0

$$$$
Core_1_EN300-100741_EN300-100741
                    3D
 Schrodinger Suite 2023-1.
  0  0  0     0  0            999 V3000
M  V30 BEGIN CTAB
M  V30 COUNTS 34 36 0 0 0
M  V30 BEGIN ATOM
M  V30 1 C  -42.0199 35.7906 -1.8931 0
M  V30 2 C  -42.7348 34.4826 -1.5600 0
M  V30 3 N  -42.3767 33.5512 -2.6301 0
M  V30 4 C  -41.2477 34.0754 -3.3989 0
M  V30 5 C  -40.7881 35.3492 -2.6789 0 CFG=1
M  V30 6 N  -40.3143 36.3715 -3.6101 0
M  V30 7 C  -39.5515 37.4162 -3.2471 0
M  V30 8 C  -39.0525 38.2939 -4.3314 0
M  V30 9 C  -38.3919 39.4760 -4.1513 0
M  V30 10 C  -38.1467 39.8870 -5.4928 0
M  V30 11 N  -38.5892 39.0421 -6.4104 0
M  V30 12 N  -39.1512 38.0574 -5.6826 0
M  V30 13 O  -37.5516 41.0293 -5.9239 0
M  V30 14 O  -39.2561 37.6486 -2.0752 0
M  V30 15 C  -43.0175 32.3963 -2.9324 0
M  V30 16 C  -43.8995 31.7930 -1.8714 0
M  V30 17 N  -45.1498 31.2870 -2.1264 0
M  V30 18 C  -45.4263 30.8082 -0.9124 0
M  V30 19 N  -44.4412 30.9826 -0.0313 0
M  V30 20 N  -43.4169 31.6051 -0.6490 0
M  V30 21 O  -42.8752 31.8194 -4.0106 0
M  V30 22 H  -41.7686 36.3706 -1.0034 0
M  V30 23 H  -42.6674 36.4071 -2.5179 0
M  V30 24 H  -42.3704 34.0954 -0.6070 0
M  V30 25 H  -43.8127 34.6300 -1.4774 0
M  V30 26 H  -41.5704 34.2917 -4.4117 0
M  V30 27 H  -40.4390 33.3466 -3.4595 0
M  V30 28 H  -39.9965 35.0819 -1.9758 0
M  V30 29 H  -40.6083 36.3024 -4.5754 0
M  V30 30 H  -38.1373 39.9672 -3.2242 0
M  V30 31 H  -37.2648 40.9560 -6.8249 0
M  V30 32 H  -39.6715 37.2990 -6.1070 0
M  V30 33 H  -46.3541 30.3147 -0.6649 0
M  V30 34 H  -44.3661 30.6878 0.9465 0
M  V30 END ATOM
M  V30 BEGIN BOND
M  V30 1 1 1 2
M  V30 2 1 1 5
M  V30 3 1 1 22
M  V30 4 1 1 23
M  V30 5 1 2 3
M  V30 6 1 2 24
M  V30 7 1 2 25
M  V30 8 1 3 4
M  V30 9 1 3 15
M  V30 10 1 4 5
M  V30 11 1 4 26
M  V30 12 1 4 27
M  V30 13 1 5 6
M  V30 14 1 5 28
M  V30 15 1 6 7
M  V30 16 1 6 29
M  V30 17 2 7 14
M  V30 18 1 7 8
M  V30 19 2 8 9
M  V30 20 1 8 12
M  V30 21 1 9 30
M  V30 22 1 9 10
M  V30 23 2 10 11
M  V30 24 1 10 13
M  V30 25 1 11 12
M  V30 26 1 12 32
M  V30 27 1 13 31
M  V30 28 1 15 16
M  V30 29 2 15 21
M  V30 30 1 16 17
M  V30 31 2 16 20
M  V30 32 2 17 18
M  V30 33 1 18 19
M  V30 34 1 18 33
M  V30 35 1 19 20
M  V30 36 1 19 34
M  V30 END BOND
M  V30 END CTAB
M  END
> <s_m_entry_id>
191

> <i_f3d_flags>
0

> <r_lp_tautomer_probability>
0.916122983323003

> <r_epik_Ionization_Penalty>
  0.3674

> <r_epik_State_Penalty>
  0.0030

> <i_epik_Tot_Q>
0

> <r_i_docking_score>
-5.82342190896483

> <r_i_glide_gscore>
-5.82642190896483

> <r_i_glide_emodel>
-48.6797364755335

> <s_m_subgroup_title>
nsp13-core1_lib_top-500_pv

> <s_m_subgroupid>
nsp13-core1_lib_top-500_pv

> <b_m_subgroup_collapsed>
0

$$$$
Core_1_EN300-7563625_EN300-7563625
                    3D
 Schrodinger Suite 2023-1.
  0  0  0     0  0            999 V3000
M  V30 BEGIN CTAB
M  V30 COUNTS 39 41 0 0 0
M  V30 BEGIN ATOM
M  V30 1 C  -43.1741 34.7245 -1.0669 0
M  V30 2 C  -44.1797 33.6204 -0.7493 0
M  V30 3 N  -43.5407 32.3640 -1.1362 0
M  V30 4 C  -42.1005 32.5492 -1.3409 0
M  V30 5 C  -41.8126 34.0297 -1.0190 0 CFG=1
M  V30 6 N  -40.8075 34.6836 -1.8658 0
M  V30 7 C  -40.8097 34.8078 -3.2048 0
M  V30 8 C  -39.7341 35.7078 -3.8146 0
M  V30 9 S  -39.7623 37.3967 -3.1230 0
M  V30 10 C  -38.8993 38.2684 -4.3894 0
M  V30 11 N  -37.9508 39.1717 -4.1756 0
M  V30 12 C  -37.6462 39.5291 -5.4585 0
M  V30 13 N  -38.3509 38.9247 -6.4102 0
M  V30 14 N  -39.1470 38.1100 -5.6899 0
M  V30 15 O  -41.6304 34.2551 -3.9371 0
M  V30 16 C  -44.2408 31.2179 -1.3033 0
M  V30 17 C  -43.5112 29.9316 -1.7244 0
M  V30 18 C  -43.7022 29.6960 -3.1933 0
M  V30 19 N  -44.7472 30.0172 -3.9649 0
M  V30 20 C  -44.4572 29.4780 -5.2094 0
M  V30 21 C  -43.2454 28.8442 -5.1280 0
M  V30 22 O  -42.7535 28.9847 -3.8601 0
M  V30 23 O  -45.4630 31.1699 -1.1448 0
M  V30 24 H  -43.2405 35.5643 -0.3746 0
M  V30 25 H  -43.3848 35.1073 -2.0654 0
M  V30 26 H  -44.3874 33.5908 0.3219 0
M  V30 27 H  -45.1254 33.7867 -1.2708 0
M  V30 28 H  -41.8462 32.2799 -2.3685 0
M  V30 29 H  -41.5301 31.8991 -0.6729 0
M  V30 30 H  -41.4503 34.0793 0.0092 0
M  V30 31 H  -40.0868 35.1917 -1.3730 0
M  V30 32 H  -39.8945 35.7355 -4.8930 0
M  V30 33 H  -38.7519 35.2627 -3.6553 0
M  V30 34 H  -36.8945 40.2679 -5.6917 0
M  V30 35 H  -39.8777 37.5318 -6.0929 0
M  V30 36 H  -42.4475 29.9486 -1.4867 0
M  V30 37 H  -43.9341 29.0881 -1.1799 0
M  V30 38 H  -45.1432 29.5695 -6.0344 0
M  V30 39 H  -42.6352 28.2839 -5.8256 0
M  V30 END ATOM
M  V30 BEGIN BOND
M  V30 1 1 1 2
M  V30 2 1 1 5
M  V30 3 1 1 24
M  V30 4 1 1 25
M  V30 5 1 2 3
M  V30 6 1 2 26
M  V30 7 1 2 27
M  V30 8 1 3 4
M  V30 9 1 3 16
M  V30 10 1 4 5
M  V30 11 1 4 28
M  V30 12 1 4 29
M  V30 13 1 5 6
M  V30 14 1 5 30
M  V30 15 1 6 7
M  V30 16 1 6 31
M  V30 17 1 7 8
M  V30 18 2 7 15
M  V30 19 1 8 9
M  V30 20 1 8 32
M  V30 21 1 8 33
M  V30 22 1 9 10
M  V30 23 2 10 11
M  V30 24 1 10 14
M  V30 25 1 11 12
M  V30 26 2 12 13
M  V30 27 1 12 34
M  V30 28 1 13 14
M  V30 29 1 14 35
M  V30 30 1 16 17
M  V30 31 2 16 23
M  V30 32 1 17 18
M  V30 33 1 17 36
M  V30 34 1 17 37
M  V30 35 2 18 19
M  V30 36 1 18 22
M  V30 37 1 19 20
M  V30 38 2 20 21
M  V30 39 1 20 38
M  V30 40 1 21 22
M  V30 41 1 21 39
M  V30 END BOND
M  V30 END CTAB
M  END
> <s_m_entry_id>
193

> <i_f3d_flags>
0

> <r_lp_tautomer_probability>
0.5726006379666

> <r_epik_Ionization_Penalty>
  0.0528

> <r_epik_State_Penalty>
  0.3304

> <i_epik_Tot_Q>
0

> <r_i_docking_score>
-5.8227309559369

> <r_i_glide_gscore>
-6.1531309559369

> <r_i_glide_emodel>
-60.3869434239318

> <s_m_subgroup_title>
nsp13-core1_lib_top-500_pv

> <s_m_subgroupid>
nsp13-core1_lib_top-500_pv

> <b_m_subgroup_collapsed>
0

$$$$
Core_1_EN300-37470895_EN300-37470895
                    3D
 Schrodinger Suite 2023-1.
  0  0  0     0  0            999 V3000
M  V30 BEGIN CTAB
M  V30 COUNTS 39 40 0 0 0
M  V30 BEGIN ATOM
M  V30 1 C  -41.8152 40.4165 -3.4550 0
M  V30 2 C  -40.9989 39.1589 -3.1418 0
M  V30 3 C  -41.8122 37.9755 -2.6204 0
M  V30 4 N  -41.2720 36.7290 -2.6906 0
M  V30 5 C  -40.0819 36.2775 -3.4247 0
M  V30 6 C  -40.2054 34.7651 -3.5476 0
M  V30 7 C  -41.0203 34.3699 -2.3220 0 CFG=1
M  V30 8 C  -41.9431 35.5751 -2.0823 0
M  V30 9 N  -41.6711 33.0648 -2.4516 0
M  V30 10 C  -42.6554 32.6848 -3.2845 0
M  V30 11 C  -42.9207 31.2292 -3.3686 0
M  V30 12 C  -43.5426 30.4681 -4.4077 0
M  V30 13 C  -43.5191 29.1476 -4.0501 0
M  V30 14 N  -42.9242 29.0879 -2.8104 0
M  V30 15 C  -42.5803 30.3482 -2.3735 0
M  V30 16 O  -43.2612 33.4704 -4.0102 0
M  V30 17 O  -42.9159 38.1713 -2.1070 0
M  V30 18 N  -39.7306 39.1414 -3.2838 0
M  V30 19 O  -39.1991 40.3559 -3.7435 0
M  V30 20 C  -37.8779 40.1126 -4.2025 0
M  V30 21 C  -37.9158 39.3125 -5.4381 0
M  V30 22 N  -37.9501 38.6845 -6.4102 0
M  V30 23 H  -42.8876 40.2191 -3.5041 0
M  V30 24 H  -41.6406 41.1739 -2.6884 0
M  V30 25 H  -41.5301 40.8294 -4.4239 0
M  V30 26 H  -39.9851 36.7316 -4.4093 0
M  V30 27 H  -39.1939 36.5279 -2.8463 0
M  V30 28 H  -40.7528 34.5315 -4.4603 0
M  V30 29 H  -39.2312 34.2834 -3.6093 0
M  V30 30 H  -40.3496 34.3030 -1.4666 0
M  V30 31 H  -42.1087 35.7361 -1.0156 0
M  V30 32 H  -42.9202 35.4568 -2.5500 0
M  V30 33 H  -41.2547 32.3237 -1.9071 0
M  V30 34 H  -43.9432 30.8466 -5.3336 0
M  V30 35 H  -43.8603 28.2564 -4.5563 0
M  V30 36 H  -42.7509 28.2448 -2.2626 0
M  V30 37 H  -42.1088 30.4850 -1.4097 0
M  V30 38 H  -37.2751 39.5982 -3.4530 0
M  V30 39 H  -37.3924 41.0610 -4.4320 0
M  V30 END ATOM
M  V30 BEGIN BOND
M  V30 1 1 1 2
M  V30 2 1 1 23
M  V30 3 1 1 24
M  V30 4 1 1 25
M  V30 5 1 2 3
M  V30 6 2 2 18 CFG=2
M  V30 7 1 3 4
M  V30 8 2 3 17
M  V30 9 1 4 5
M  V30 10 1 4 8
M  V30 11 1 5 6
M  V30 12 1 5 26
M  V30 13 1 5 27
M  V30 14 1 6 7
M  V30 15 1 6 28
M  V30 16 1 6 29
M  V30 17 1 7 8
M  V30 18 1 7 9
M  V30 19 1 7 30
M  V30 20 1 8 31
M  V30 21 1 8 32
M  V30 22 1 9 10
M  V30 23 1 9 33
M  V30 24 1 10 11
M  V30 25 2 10 16
M  V30 26 1 11 12
M  V30 27 2 11 15
M  V30 28 2 12 13
M  V30 29 1 12 34
M  V30 30 1 13 14
M  V30 31 1 13 35
M  V30 32 1 14 15
M  V30 33 1 14 36
M  V30 34 1 15 37
M  V30 35 1 18 19
M  V30 36 1 19 20
M  V30 37 1 20 21
M  V30 38 1 20 38
M  V30 39 1 20 39
M  V30 40 3 21 22
M  V30 END BOND
M  V30 END CTAB
M  END
> <s_m_entry_id>
194

> <i_f3d_flags>
0

> <r_lp_tautomer_probability>
1

> <r_epik_Ionization_Penalty>
  0.0000

> <r_epik_State_Penalty>
  0.0000

> <i_epik_Tot_Q>
0

> <r_i_docking_score>
-5.81936243900977

> <r_i_glide_gscore>
-5.81936243900977

> <r_i_glide_emodel>
-46.8768092431352

> <s_m_subgroup_title>
nsp13-core1_lib_top-500_pv

> <s_m_subgroupid>
nsp13-core1_lib_top-500_pv

> <b_m_subgroup_collapsed>
0

$$$$
Core_1_EN300-1262608_EN300-1262608
                    3D
 Schrodinger Suite 2023-1.
  0  0  0     0  0            999 V3000
M  V30 BEGIN CTAB
M  V30 COUNTS 48 50 0 0 0
M  V30 BEGIN ATOM
M  V30 1 C  -46.3751 40.3043 -5.3855 0
M  V30 2 C  -45.2958 41.3572 -5.6501 0
M  V30 3 N  -44.1802 40.7779 -6.3838 0
M  V30 4 C  -43.1389 41.4912 -6.8379 0
M  V30 5 C  -42.0831 40.6751 -7.6103 0
M  V30 6 N  -40.9202 40.3992 -6.9805 0
M  V30 7 C  -39.8807 39.5769 -7.5873 0
M  V30 8 C  -38.6693 39.6737 -6.6635 0
M  V30 9 C  -39.2671 39.9707 -5.2945 0 CFG=1
M  V30 10 C  -40.5750 40.7174 -5.5918 0
M  V30 11 N  -39.5515 38.7290 -4.5838 0
M  V30 12 C  -39.1898 38.4263 -3.3292 0
M  V30 13 C  -39.7242 37.1178 -2.8307 0
M  V30 14 C  -39.7618 35.9899 -3.6790 0
M  V30 15 C  -40.3248 34.7842 -3.2292 0
M  V30 16 C  -40.8651 34.6838 -1.9312 0
M  V30 17 C  -41.5277 33.4526 -1.4758 0
M  V30 18 C  -42.4849 32.7305 -2.0983 0
M  V30 19 C  -43.2200 33.0460 -3.3237 0
M  V30 20 N  -44.1980 32.1730 -3.6385 0 CHG=-1
M  V30 21 C  -44.3513 31.1711 -2.8001 0
M  V30 22 O  -45.1949 30.2838 -2.8103 0
M  V30 23 S  -43.1546 31.2323 -1.4842 0
M  V30 24 O  -42.9920 34.0373 -4.0101 0
M  V30 25 C  -40.7649 35.7880 -1.0604 0
M  V30 26 C  -40.1945 36.9978 -1.5052 0
M  V30 27 O  -38.5348 39.1705 -2.6004 0
M  V30 28 O  -42.3513 40.2865 -8.7504 0
M  V30 29 O  -42.9945 42.7032 -6.6795 0
M  V30 30 H  -47.2187 40.7393 -4.8495 0
M  V30 31 H  -45.9858 39.4852 -4.7802 0
M  V30 32 H  -46.7541 39.8844 -6.3179 0
M  V30 33 H  -45.7192 42.1852 -6.2208 0
M  V30 34 H  -44.9343 41.7678 -4.7062 0
M  V30 35 H  -44.1998 39.7779 -6.5402 0
M  V30 36 H  -40.2486 38.5509 -7.6102 0
M  V30 37 H  -39.6367 39.8863 -8.6040 0
M  V30 38 H  -38.0419 38.7817 -6.6751 0
M  V30 39 H  -38.0449 40.5134 -6.9737 0
M  V30 40 H  -38.5886 40.5964 -4.7118 0
M  V30 41 H  -40.4188 41.7940 -5.5085 0
M  V30 42 H  -41.3681 40.4431 -4.8933 0
M  V30 43 H  -40.1489 38.0621 -5.0596 0
M  V30 44 H  -39.3815 36.0432 -4.6887 0
M  V30 45 H  -40.3650 33.9383 -3.8985 0
M  V30 46 H  -41.1502 33.0553 -0.5454 0
M  V30 47 H  -41.1544 35.7198 -0.0552 0
M  V30 48 H  -40.1520 37.8444 -0.8349 0
M  V30 END ATOM
M  V30 BEGIN BOND
M  V30 1 1 1 2
M  V30 2 1 1 30
M  V30 3 1 1 31
M  V30 4 1 1 32
M  V30 5 1 2 3
M  V30 6 1 2 33
M  V30 7 1 2 34
M  V30 8 1 3 4
M  V30 9 1 3 35
M  V30 10 1 4 5
M  V30 11 2 4 29
M  V30 12 1 5 6
M  V30 13 2 5 28
M  V30 14 1 6 7
M  V30 15 1 6 10
M  V30 16 1 7 8
M  V30 17 1 7 36
M  V30 18 1 7 37
M  V30 19 1 8 9
M  V30 20 1 8 38
M  V30 21 1 8 39
M  V30 22 1 9 10
M  V30 23 1 9 11
M  V30 24 1 9 40
M  V30 25 1 10 41
M  V30 26 1 10 42
M  V30 27 1 11 12
M  V30 28 1 11 43
M  V30 29 1 12 13
M  V30 30 2 12 27
M  V30 31 2 13 14
M  V30 32 1 13 26
M  V30 33 1 14 15
M  V30 34 1 14 44
M  V30 35 2 15 16
M  V30 36 1 15 45
M  V30 37 1 16 17
M  V30 38 1 16 25
M  V30 39 2 17 18 CFG=2
M  V30 40 1 17 46
M  V30 41 1 18 19
M  V30 42 1 18 23
M  V30 43 1 19 20
M  V30 44 2 19 24
M  V30 45 1 20 21
M  V30 46 2 21 22
M  V30 47 1 21 23
M  V30 48 2 25 26
M  V30 49 1 25 47
M  V30 50 1 26 48
M  V30 END BOND
M  V30 END CTAB
M  END
> <s_m_entry_id>
195

> <i_f3d_flags>
0

> <r_epik_Ionization_Penalty>
  0.0630

> <r_epik_State_Penalty>
  0.0630

> <i_epik_Tot_Q>
-1

> <r_i_docking_score>
-5.81890375673681

> <r_i_glide_gscore>
-5.88190375673681

> <r_i_glide_emodel>
-62.2301412692779

> <s_m_subgroup_title>
nsp13-core1_lib_top-500_pv

> <s_m_subgroupid>
nsp13-core1_lib_top-500_pv

> <b_m_subgroup_collapsed>
0

$$$$
Core_1_EN300-101018_EN300-101018
                    3D
 Schrodinger Suite 2023-1.
  0  0  0     0  0            999 V3000
M  V30 BEGIN CTAB
M  V30 COUNTS 38 40 0 0 0
M  V30 BEGIN ATOM
M  V30 1 C  -42.9937 36.3922 -2.9036 0
M  V30 2 C  -43.8431 35.1599 -2.6070 0
M  V30 3 N  -42.9933 34.0050 -2.8764 0
M  V30 4 C  -41.6053 34.4212 -3.0782 0
M  V30 5 C  -41.5555 35.9144 -2.7313 0 CFG=1
M  V30 6 N  -40.6552 36.6569 -3.6100 0
M  V30 7 C  -39.6298 37.4187 -3.2000 0
M  V30 8 C  -39.0029 38.2786 -4.2267 0
M  V30 9 C  -38.1941 39.3460 -3.9681 0
M  V30 10 C  -37.8990 39.8171 -5.2774 0
M  V30 11 N  -38.4467 39.1034 -6.2557 0
M  V30 12 N  -39.1513 38.1624 -5.5907 0
M  V30 13 O  -37.1514 40.9017 -5.6100 0
M  V30 14 O  -39.2472 37.4631 -2.0303 0
M  V30 15 C  -43.4657 32.7393 -2.8930 0
M  V30 16 C  -42.4782 31.5864 -3.1493 0
M  V30 17 C  -43.1105 30.3993 -3.8432 0
M  V30 18 C  -44.1621 30.3840 -4.8100 0
M  V30 19 C  -44.3441 29.0848 -5.1854 0
M  V30 20 O  -43.4953 28.2747 -4.5064 0
M  V30 21 C  -42.7621 29.0838 -3.6924 0
M  V30 22 O  -44.6609 32.4879 -2.7091 0
M  V30 23 H  -43.1694 36.7075 -3.9363 0
M  V30 24 H  -43.2394 37.2359 -2.2571 0
M  V30 25 H  -44.7512 35.1518 -3.2097 0
M  V30 26 H  -44.1390 35.1465 -1.5569 0
M  V30 27 H  -40.9126 33.8559 -2.4515 0
M  V30 28 H  -41.3301 34.2500 -4.1198 0
M  V30 29 H  -41.2859 36.0167 -1.6776 0
M  V30 30 H  -40.9472 36.7372 -4.5803 0
M  V30 31 H  -37.8799 39.7341 -3.0095 0
M  V30 32 H  -36.9360 40.8977 -6.5350 0
M  V30 33 H  -39.7503 37.4949 -6.0604 0
M  V30 34 H  -42.0556 31.2683 -2.1956 0
M  V30 35 H  -41.6505 31.9137 -3.7768 0
M  V30 36 H  -44.7053 31.2296 -5.2054 0
M  V30 37 H  -44.9950 28.5892 -5.8908 0
M  V30 38 H  -42.0273 28.5750 -3.0874 0
M  V30 END ATOM
M  V30 BEGIN BOND
M  V30 1 1 1 2
M  V30 2 1 1 5
M  V30 3 1 1 23
M  V30 4 1 1 24
M  V30 5 1 2 3
M  V30 6 1 2 25
M  V30 7 1 2 26
M  V30 8 1 3 4
M  V30 9 1 3 15
M  V30 10 1 4 5
M  V30 11 1 4 27
M  V30 12 1 4 28
M  V30 13 1 5 6
M  V30 14 1 5 29
M  V30 15 1 6 7
M  V30 16 1 6 30
M  V30 17 2 7 14
M  V30 18 1 7 8
M  V30 19 2 8 9
M  V30 20 1 8 12
M  V30 21 1 9 31
M  V30 22 1 9 10
M  V30 23 2 10 11
M  V30 24 1 10 13
M  V30 25 1 11 12
M  V30 26 1 12 33
M  V30 27 1 13 32
M  V30 28 1 15 16
M  V30 29 2 15 22
M  V30 30 1 16 17
M  V30 31 1 16 34
M  V30 32 1 16 35
M  V30 33 1 17 18
M  V30 34 2 17 21
M  V30 35 2 18 19
M  V30 36 1 18 36
M  V30 37 1 19 20
M  V30 38 1 19 37
M  V30 39 1 20 21
M  V30 40 1 21 38
M  V30 END BOND
M  V30 END CTAB
M  END
> <s_m_entry_id>
197

> <i_f3d_flags>
0

> <r_lp_tautomer_probability>
0.966084542645576

> <r_epik_Ionization_Penalty>
  0.2455

> <r_epik_State_Penalty>
  0.3538

> <i_epik_Tot_Q>
0

> <r_i_docking_score>
-5.81755572202153

> <r_i_glide_gscore>
-6.17135572202153

> <r_i_glide_emodel>
-54.6196551824632

> <s_m_subgroup_title>
nsp13-core1_lib_top-500_pv

> <s_m_subgroupid>
nsp13-core1_lib_top-500_pv

> <b_m_subgroup_collapsed>
0

$$$$
Core_1_EN300-65842_EN300-65842
                    3D
 Schrodinger Suite 2023-1.
  0  0  0     0  0            999 V3000
M  V30 BEGIN CTAB
M  V30 COUNTS 49 52 0 0 0
M  V30 BEGIN ATOM
M  V30 1 C  -42.3514 28.5773 -4.0476 0
M  V30 2 N  -43.3970 29.5494 -4.0960 0
M  V30 3 C  -44.3225 29.7232 -5.0426 0
M  V30 4 N  -45.1512 30.7315 -4.8103 0
M  V30 5 N  -44.7512 31.2529 -3.5987 0
M  V30 6 C  -43.6868 30.5349 -3.2319 0
M  V30 7 S  -42.7276 30.8154 -1.7817 0
M  V30 8 C  -42.8253 32.6315 -1.6696 0
M  V30 9 C  -42.0977 33.3847 -2.8007 0
M  V30 10 N  -41.2649 34.4010 -2.4984 0
M  V30 11 C  -41.0963 35.0272 -1.1903 0
M  V30 12 C  -40.5007 36.4055 -1.4657 0
M  V30 13 C  -39.7921 36.2714 -2.8140 0 CFG=1
M  V30 14 C  -40.5079 35.1185 -3.5209 0
M  V30 15 N  -39.8714 37.4897 -3.6105 0
M  V30 16 C  -39.1519 38.5980 -3.3815 0
M  V30 17 C  -39.3500 39.7938 -4.3225 0 CFG=1
M  V30 18 C  -39.2832 39.4895 -5.8363 0
M  V30 19 C  -40.5192 40.3838 -5.9994 0 CFG=1
M  V30 20 C  -40.8097 40.2635 -4.4986 0
M  V30 21 C  -40.3188 41.7781 -6.5631 0
M  V30 22 N  -41.1704 41.9114 -7.5767 0
M  V30 23 C  -41.9074 40.8139 -7.7838 0
M  V30 24 N  -41.5515 39.8839 -6.8849 0
M  V30 25 O  -42.7514 40.6838 -8.6677 0
M  V30 26 O  -39.5174 42.6123 -6.1496 0
M  V30 27 O  -38.3520 38.6866 -2.4523 0
M  V30 28 O  -42.2916 33.0543 -3.9715 0
M  V30 29 H  -42.5120 27.9002 -3.2103 0
M  V30 30 H  -41.3967 29.0869 -3.9225 0
M  V30 31 H  -42.3514 28.0035 -4.9755 0
M  V30 32 H  -44.3851 29.1078 -5.9293 0
M  V30 33 H  -43.8691 32.9424 -1.6448 0
M  V30 34 H  -42.4110 32.8805 -0.6953 0
M  V30 35 H  -42.0344 35.1232 -0.6423 0
M  V30 36 H  -40.4098 34.4239 -0.5952 0
M  V30 37 H  -41.3115 37.1324 -1.5363 0
M  V30 38 H  -39.8305 36.7390 -0.6724 0
M  V30 39 H  -38.7517 35.9884 -2.6482 0
M  V30 40 H  -39.7906 34.4586 -4.0096 0
M  V30 41 H  -41.1909 35.4832 -4.2880 0
M  V30 42 H  -40.5124 37.4838 -4.3946 0
M  V30 43 H  -38.6979 40.6277 -4.0554 0
M  V30 44 H  -38.3808 39.8673 -6.3189 0
M  V30 45 H  -39.4669 38.4467 -6.0997 0
M  V30 46 H  -41.5634 39.5091 -4.2644 0
M  V30 47 H  -41.0283 41.2079 -3.9994 0
M  V30 48 H  -41.2493 42.7509 -8.1284 0
M  V30 49 H  -41.9481 38.9558 -6.8015 0
M  V30 END ATOM
M  V30 BEGIN BOND
M  V30 1 1 1 2
M  V30 2 1 1 29
M  V30 3 1 1 30
M  V30 4 1 1 31
M  V30 5 1 2 3
M  V30 6 1 2 6
M  V30 7 2 3 4
M  V30 8 1 3 32
M  V30 9 1 4 5
M  V30 10 2 5 6
M  V30 11 1 6 7
M  V30 12 1 7 8
M  V30 13 1 8 9
M  V30 14 1 8 33
M  V30 15 1 8 34
M  V30 16 1 9 10
M  V30 17 2 9 28
M  V30 18 1 10 11
M  V30 19 1 10 14
M  V30 20 1 11 12
M  V30 21 1 11 35
M  V30 22 1 11 36
M  V30 23 1 12 13
M  V30 24 1 12 37
M  V30 25 1 12 38
M  V30 26 1 13 14
M  V30 27 1 13 15
M  V30 28 1 13 39
M  V30 29 1 14 40
M  V30 30 1 14 41
M  V30 31 1 15 16
M  V30 32 1 15 42
M  V30 33 1 16 17
M  V30 34 2 16 27
M  V30 35 1 17 18
M  V30 36 1 17 20
M  V30 37 1 17 43
M  V30 38 1 18 19
M  V30 39 1 18 44
M  V30 40 1 18 45
M  V30 41 1 19 20
M  V30 42 1 19 21
M  V30 43 1 19 24
M  V30 44 1 20 46
M  V30 45 1 20 47
M  V30 46 1 21 22
M  V30 47 2 21 26
M  V30 48 1 22 23
M  V30 49 1 22 48
M  V30 50 1 23 24
M  V30 51 2 23 25
M  V30 52 1 24 49
M  V30 END BOND
M  V30 END CTAB
M  END
> <s_m_entry_id>
198

> <i_f3d_flags>
0

> <r_lp_tautomer_probability>
0.99999999978137

> <r_epik_Ionization_Penalty>
  0.0100

> <r_epik_State_Penalty>
  0.0100

> <i_epik_Tot_Q>
0

> <r_i_docking_score>
-5.81390113281516

> <r_i_glide_gscore>
-5.82390113281516

> <r_i_glide_emodel>
-57.4498100211706

> <s_m_subgroup_title>
nsp13-core1_lib_top-500_pv

> <s_m_subgroupid>
nsp13-core1_lib_top-500_pv

> <b_m_subgroup_collapsed>
0

$$$$
Core_1_EN300-43352897_EN300-43352897
                    3D
 Schrodinger Suite 2023-1.
  0  0  0     0  0            999 V3000
M  V30 BEGIN CTAB
M  V30 COUNTS 42 46 0 0 0
M  V30 BEGIN ATOM
M  V30 1 C  -40.3878 35.6964 -0.6321 0
M  V30 2 C  -39.6584 37.0380 -0.7109 0
M  V30 3 N  -39.7970 37.5089 -2.0893 0
M  V30 4 C  -40.6741 36.6140 -2.8482 0
M  V30 5 C  -41.3593 35.7138 -1.8068 0 CFG=1
M  V30 6 N  -41.6321 34.3629 -2.2852 0
M  V30 7 C  -42.6526 34.0209 -3.0837 0
M  V30 8 C  -42.8312 32.5803 -3.3379 0
M  V30 9 C  -42.3634 31.4842 -2.6094 0
M  V30 10 C  -42.8599 30.4453 -3.3320 0
M  V30 11 C  -43.5600 30.8685 -4.3528 0
M  V30 12 C  -44.0532 29.7693 -5.0980 0
M  V30 13 C  -43.5512 28.6677 -4.4099 0
M  V30 14 N  -42.8139 29.0837 -3.2812 0
M  V30 15 O  -43.6188 32.2110 -4.4358 0
M  V30 16 O  -43.4023 34.8446 -3.6098 0
M  V30 17 C  -39.1592 38.6178 -2.5302 0
M  V30 18 C  -39.3617 39.0517 -3.9548 0
M  V30 19 C  -38.2226 39.0862 -4.8030 0
M  V30 20 C  -38.3517 39.5226 -6.1017 0
M  V30 21 C  -39.6392 39.9168 -6.5444 0
M  V30 22 N  -40.1442 40.3423 -7.7048 0
M  V30 23 N  -41.5004 40.5592 -7.5115 0
M  V30 24 C  -41.7839 40.2836 -6.2367 0
M  V30 25 N  -40.6660 39.8748 -5.5843 0
M  V30 26 N  -40.5834 39.4839 -4.2826 0
M  V30 27 O  -38.3780 39.2555 -1.8228 0
M  V30 28 H  -40.8874 35.5473 0.3267 0
M  V30 29 H  -39.6577 34.8933 -0.7551 0
M  V30 30 H  -40.1241 37.7628 -0.0392 0
M  V30 31 H  -38.6098 36.9367 -0.4194 0
M  V30 32 H  -40.0598 36.0283 -3.5362 0
M  V30 33 H  -41.4222 37.1453 -3.4373 0
M  V30 34 H  -42.2896 36.1854 -1.4820 0
M  V30 35 H  -41.0618 33.6161 -1.9155 0
M  V30 36 H  -41.7560 31.4651 -1.7169 0
M  V30 37 H  -44.6516 29.7660 -5.9977 0
M  V30 38 H  -43.6598 27.6141 -4.6168 0
M  V30 39 H  -42.3550 28.5031 -2.5843 0
M  V30 40 H  -37.2492 38.7799 -4.4315 0
M  V30 41 H  -37.5019 39.5743 -6.7749 0
M  V30 42 H  -42.7668 40.3519 -5.7945 0
M  V30 END ATOM
M  V30 BEGIN BOND
M  V30 1 1 1 2
M  V30 2 1 1 5
M  V30 3 1 1 28
M  V30 4 1 1 29
M  V30 5 1 2 3
M  V30 6 1 2 30
M  V30 7 1 2 31
M  V30 8 1 3 4
M  V30 9 1 3 17
M  V30 10 1 4 5
M  V30 11 1 4 32
M  V30 12 1 4 33
M  V30 13 1 5 6
M  V30 14 1 5 34
M  V30 15 1 6 7
M  V30 16 1 6 35
M  V30 17 1 7 8
M  V30 18 2 7 16
M  V30 19 2 8 9
M  V30 20 1 8 15
M  V30 21 1 9 10
M  V30 22 1 9 36
M  V30 23 2 10 11
M  V30 24 1 10 14
M  V30 25 1 11 12
M  V30 26 1 11 15
M  V30 27 2 12 13
M  V30 28 1 12 37
M  V30 29 1 13 14
M  V30 30 1 13 38
M  V30 31 1 14 39
M  V30 32 1 17 18
M  V30 33 2 17 27
M  V30 34 1 18 19
M  V30 35 2 18 26
M  V30 36 2 19 20
M  V30 37 1 19 40
M  V30 38 1 20 21
M  V30 39 1 20 41
M  V30 40 2 21 22
M  V30 41 1 21 25
M  V30 42 1 22 23
M  V30 43 2 23 24
M  V30 44 1 24 25
M  V30 45 1 24 42
M  V30 46 1 25 26
M  V30 END BOND
M  V30 END CTAB
M  END
> <s_m_entry_id>
202

> <i_f3d_flags>
0

> <r_lp_tautomer_probability>
1

> <r_epik_Ionization_Penalty>
  0.0000

> <r_epik_State_Penalty>
  0.0000

> <i_epik_Tot_Q>
0

> <r_i_docking_score>
-5.81152784746872

> <r_i_glide_gscore>
-5.81152784746872

> <r_i_glide_emodel>
-56.5715527993284

> <s_m_subgroup_title>
nsp13-core1_lib_top-500_pv

> <s_m_subgroupid>
nsp13-core1_lib_top-500_pv

> <b_m_subgroup_collapsed>
0

$$$$
Core_1_EN300-147407_EN300-147407
                    3D
 Schrodinger Suite 2023-1.
  0  0  0     0  0            999 V3000
M  V30 BEGIN CTAB
M  V30 COUNTS 39 42 0 0 0
M  V30 BEGIN ATOM
M  V30 1 C  -40.2262 36.5477 -1.5095 0
M  V30 2 C  -40.8456 35.2908 -0.9007 0
M  V30 3 N  -41.4765 34.5798 -2.0089 0
M  V30 4 C  -41.0974 35.1839 -3.2853 0
M  V30 5 C  -39.9657 36.1674 -2.9666 0 CFG=1
M  V30 6 N  -39.9514 37.2883 -3.9060 0
M  V30 7 C  -39.1513 38.3620 -3.8296 0
M  V30 8 C  -38.9247 39.0807 -5.1172 0
M  V30 9 C  -39.8827 39.4802 -6.0908 0
M  V30 10 N  -39.2823 40.0293 -7.1424 0
M  V30 11 N  -37.9672 40.0347 -6.8102 0
M  V30 12 C  -37.7124 39.4885 -5.5758 0
M  V30 13 O  -38.5095 38.6833 -2.8302 0
M  V30 14 C  -42.2384 33.4785 -1.8287 0
M  V30 15 C  -42.9873 32.9308 -3.0125 0
M  V30 16 C  -43.0549 31.5478 -3.3088 0
M  V30 17 C  -42.4507 30.4227 -2.7071 0
M  V30 18 C  -42.6966 29.1435 -3.2540 0
M  V30 19 C  -43.5512 28.9780 -4.3711 0
M  V30 20 C  -44.1755 30.0990 -4.9543 0
M  V30 21 C  -43.8924 31.3587 -4.4097 0
M  V30 22 O  -44.3221 32.6270 -4.7601 0
M  V30 23 N  -43.7591 33.5898 -3.8781 0
M  V30 24 O  -42.3459 32.9235 -0.7345 0
M  V30 25 H  -39.3215 36.8600 -0.9846 0
M  V30 26 H  -40.9448 37.3692 -1.4586 0
M  V30 27 H  -40.0725 34.6562 -0.4638 0
M  V30 28 H  -41.5632 35.5390 -0.1179 0
M  V30 29 H  -41.9632 35.7116 -3.6866 0
M  V30 30 H  -40.7812 34.4394 -4.0172 0
M  V30 31 H  -39.0127 35.6388 -3.0280 0
M  V30 32 H  -40.4713 37.1526 -4.7676 0
M  V30 33 H  -40.9557 39.3585 -6.0895 0
M  V30 34 H  -37.2496 40.4062 -7.4298 0
M  V30 35 H  -36.7229 39.4100 -5.1513 0
M  V30 36 H  -41.8085 30.5313 -1.8463 0
M  V30 37 H  -42.2178 28.2831 -2.8104 0
M  V30 38 H  -43.7253 27.9892 -4.7725 0
M  V30 39 H  -44.8326 29.9897 -5.8061 0
M  V30 END ATOM
M  V30 BEGIN BOND
M  V30 1 1 1 2
M  V30 2 1 1 5
M  V30 3 1 1 25
M  V30 4 1 1 26
M  V30 5 1 2 3
M  V30 6 1 2 27
M  V30 7 1 2 28
M  V30 8 1 3 4
M  V30 9 1 3 14
M  V30 10 1 4 5
M  V30 11 1 4 29
M  V30 12 1 4 30
M  V30 13 1 5 6
M  V30 14 1 5 31
M  V30 15 1 6 7
M  V30 16 1 6 32
M  V30 17 1 7 8
M  V30 18 2 7 13
M  V30 19 1 8 9
M  V30 20 2 8 12
M  V30 21 2 9 10
M  V30 22 1 9 33
M  V30 23 1 10 11
M  V30 24 1 11 12
M  V30 25 1 11 34
M  V30 26 1 12 35
M  V30 27 1 14 15
M  V30 28 2 14 24
M  V30 29 1 15 16
M  V30 30 2 15 23
M  V30 31 2 16 17
M  V30 32 1 16 21
M  V30 33 1 17 18
M  V30 34 1 17 36
M  V30 35 2 18 19
M  V30 36 1 18 37
M  V30 37 1 19 20
M  V30 38 1 19 38
M  V30 39 2 20 21
M  V30 40 1 20 39
M  V30 41 1 21 22
M  V30 42 1 22 23
M  V30 END BOND
M  V30 END CTAB
M  END
> <s_m_entry_id>
204

> <i_f3d_flags>
0

> <r_lp_tautomer_probability>
1

> <r_epik_Ionization_Penalty>
  0.0000

> <r_epik_State_Penalty>
  0.0000

> <i_epik_Tot_Q>
0

> <r_i_docking_score>
-5.80973608725998

> <r_i_glide_gscore>
-5.80973608725998

> <r_i_glide_emodel>
-53.5868472477726

> <s_m_subgroup_title>
nsp13-core1_lib_top-500_pv

> <s_m_subgroupid>
nsp13-core1_lib_top-500_pv

> <b_m_subgroup_collapsed>
0

$$$$
Core_1_EN300-13051_EN300-13051
                    3D
 Schrodinger Suite 2023-1.
  0  0  0     0  0            999 V3000
M  V30 BEGIN CTAB
M  V30 COUNTS 37 39 0 0 0
M  V30 BEGIN ATOM
M  V30 1 C  -42.9708 36.3202 -2.7543 0
M  V30 2 C  -43.7868 35.0605 -2.4688 0
M  V30 3 N  -42.9439 33.9356 -2.8642 0
M  V30 4 C  -41.5841 34.3849 -3.1647 0
M  V30 5 C  -41.5174 35.8499 -2.7232 0 CFG=1
M  V30 6 N  -40.6688 36.6460 -3.6093 0
M  V30 7 C  -39.6818 37.4576 -3.1930 0
M  V30 8 C  -39.0441 38.3066 -4.2218 0
M  V30 9 C  -38.2482 39.3844 -3.9638 0
M  V30 10 C  -37.9150 39.8270 -5.2740 0
M  V30 11 N  -38.4366 39.0943 -6.2508 0
M  V30 12 N  -39.1511 38.1624 -5.5854 0
M  V30 13 O  -37.1530 40.9009 -5.6108 0
M  V30 14 O  -39.3309 37.5406 -2.0158 0
M  V30 15 C  -43.3824 32.6594 -2.8947 0
M  V30 16 C  -42.3806 31.5534 -3.2754 0
M  V30 17 N  -43.0042 30.3804 -3.8680 0
M  V30 18 C  -42.8295 29.0846 -3.6093 0
M  V30 19 N  -43.5134 28.2848 -4.4169 0
M  V30 20 C  -44.1193 29.2097 -5.2102 0
M  V30 21 N  -43.8519 30.4815 -4.9198 0
M  V30 22 O  -44.5506 32.3647 -2.6277 0
M  V30 23 H  -43.2284 36.6983 -3.7458 0
M  V30 24 H  -43.1663 37.1182 -2.0370 0
M  V30 25 H  -44.7403 35.0712 -2.9976 0
M  V30 26 H  -43.9977 34.9821 -1.4011 0
M  V30 27 H  -40.8291 33.7920 -2.6463 0
M  V30 28 H  -41.4064 34.2895 -4.2376 0
M  V30 29 H  -41.1680 35.8778 -1.6880 0
M  V30 30 H  -40.9470 36.6869 -4.5829 0
M  V30 31 H  -37.9602 39.7896 -3.0046 0
M  V30 32 H  -36.9199 40.8825 -6.5285 0
M  V30 33 H  -39.7359 37.4837 -6.0580 0
M  V30 34 H  -41.8314 31.2491 -2.3835 0
M  V30 35 H  -41.6507 31.9223 -3.9937 0
M  V30 36 H  -42.1780 28.7156 -2.8283 0
M  V30 37 H  -44.7746 28.9425 -6.0242 0
M  V30 END ATOM
M  V30 BEGIN BOND
M  V30 1 1 1 2
M  V30 2 1 1 5
M  V30 3 1 1 23
M  V30 4 1 1 24
M  V30 5 1 2 3
M  V30 6 1 2 25
M  V30 7 1 2 26
M  V30 8 1 3 4
M  V30 9 1 3 15
M  V30 10 1 4 5
M  V30 11 1 4 27
M  V30 12 1 4 28
M  V30 13 1 5 6
M  V30 14 1 5 29
M  V30 15 1 6 7
M  V30 16 1 6 30
M  V30 17 2 7 14
M  V30 18 1 7 8
M  V30 19 2 8 9
M  V30 20 1 8 12
M  V30 21 1 9 31
M  V30 22 1 9 10
M  V30 23 2 10 11
M  V30 24 1 10 13
M  V30 25 1 11 12
M  V30 26 1 12 33
M  V30 27 1 13 32
M  V30 28 1 15 16
M  V30 29 2 15 22
M  V30 30 1 16 17
M  V30 31 1 16 34
M  V30 32 1 16 35
M  V30 33 1 17 18
M  V30 34 1 17 21
M  V30 35 2 18 19
M  V30 36 1 18 36
M  V30 37 1 19 20
M  V30 38 2 20 21
M  V30 39 1 20 37
M  V30 END BOND
M  V30 END CTAB
M  END
> <s_m_entry_id>
211

> <i_f3d_flags>
0

> <r_lp_tautomer_probability>
0.966084542645577

> <r_epik_Ionization_Penalty>
  0.2460

> <r_epik_State_Penalty>
  0.3556

> <i_epik_Tot_Q>
0

> <r_i_docking_score>
-5.80113986866736

> <r_i_glide_gscore>
-6.15673986866736

> <r_i_glide_emodel>
-56.658779271015

> <s_m_subgroup_title>
nsp13-core1_lib_top-500_pv

> <s_m_subgroupid>
nsp13-core1_lib_top-500_pv

> <b_m_subgroup_collapsed>
0

$$$$
Core_1_EN300-6481378_EN300-6481378
                    3D
 Schrodinger Suite 2023-1.
  0  0  0     0  0            999 V3000
M  V30 BEGIN CTAB
M  V30 COUNTS 39 42 0 0 0
M  V30 BEGIN ATOM
M  V30 1 C  -43.7179 37.4895 -3.2170 0
M  V30 2 C  -43.6949 35.9675 -3.0903 0
M  V30 3 N  -42.6976 35.6277 -2.0790 0
M  V30 4 C  -42.0174 36.8368 -1.6144 0
M  V30 5 C  -42.4410 37.9791 -2.5482 0 CFG=1
M  V30 6 N  -41.4046 38.2872 -3.5321 0
M  V30 7 C  -40.3011 39.0075 -3.2633 0
M  V30 8 C  -39.3248 39.1807 -4.3842 0
M  V30 9 N  -38.1551 39.8145 -4.3201 0
M  V30 10 C  -37.7009 39.6505 -5.5961 0
M  V30 11 N  -38.5005 38.9676 -6.4101 0
M  V30 12 N  -39.5478 38.6838 -5.6062 0
M  V30 13 O  -40.0745 39.4991 -2.1577 0
M  V30 14 C  -42.3359 34.4004 -1.6284 0
M  V30 15 C  -42.7414 33.1720 -2.3973 0
M  V30 16 C  -41.9513 31.9946 -2.4077 0
M  V30 17 C  -42.6077 31.0728 -3.1811 0
M  V30 18 C  -42.3521 29.7403 -3.5898 0
M  V30 19 C  -43.2623 29.1350 -4.4214 0
M  V30 20 C  -44.4184 29.8498 -4.8102 0
M  V30 21 N  -44.7514 31.0832 -4.4353 0
M  V30 22 N  -43.8090 31.6533 -3.6421 0
M  V30 23 C  -43.8840 32.9408 -3.1279 0
M  V30 24 O  -41.5650 34.2803 -0.6757 0
M  V30 25 H  -44.5786 37.8791 -2.6718 0
M  V30 26 H  -43.8183 37.8200 -4.2523 0
M  V30 27 H  -44.6841 35.6143 -2.8011 0
M  V30 28 H  -43.4199 35.5153 -4.0390 0
M  V30 29 H  -40.9338 36.7065 -1.5822 0
M  V30 30 H  -42.3459 37.0464 -0.5955 0
M  V30 31 H  -42.6506 38.8830 -1.9724 0
M  V30 32 H  -41.5353 37.9029 -4.4631 0
M  V30 33 H  -36.7521 40.0401 -5.9331 0
M  V30 34 H  -41.0076 31.8644 -1.8982 0
M  V30 35 H  -41.4535 29.2274 -3.2610 0
M  V30 36 H  -43.0876 28.1233 -4.7747 0
M  V30 37 H  -45.1276 29.3610 -5.4711 0
M  V30 38 H  -44.7499 33.5368 -3.3559 0
M  V30 39 H  -40.3411 38.1253 -5.9099 0
M  V30 END ATOM
M  V30 BEGIN BOND
M  V30 1 1 1 2
M  V30 2 1 1 5
M  V30 3 1 1 25
M  V30 4 1 1 26
M  V30 5 1 2 3
M  V30 6 1 2 27
M  V30 7 1 2 28
M  V30 8 1 3 4
M  V30 9 1 3 14
M  V30 10 1 4 5
M  V30 11 1 4 29
M  V30 12 1 4 30
M  V30 13 1 5 6
M  V30 14 1 5 31
M  V30 15 1 6 7
M  V30 16 1 6 32
M  V30 17 1 7 8
M  V30 18 2 7 13
M  V30 19 2 8 9
M  V30 20 1 8 12
M  V30 21 1 9 10
M  V30 22 2 10 11
M  V30 23 1 10 33
M  V30 24 1 11 12
M  V30 25 1 12 39
M  V30 26 1 14 15
M  V30 27 2 14 24
M  V30 28 1 15 16
M  V30 29 2 15 23
M  V30 30 2 16 17
M  V30 31 1 16 34
M  V30 32 1 17 18
M  V30 33 1 17 22
M  V30 34 2 18 19
M  V30 35 1 18 35
M  V30 36 1 19 20
M  V30 37 1 19 36
M  V30 38 2 20 21
M  V30 39 1 20 37
M  V30 40 1 21 22
M  V30 41 1 22 23
M  V30 42 1 23 38
M  V30 END BOND
M  V30 END CTAB
M  END
> <s_m_entry_id>
218

> <i_f3d_flags>
0

> <r_lp_tautomer_probability>
0.948284485345604

> <r_epik_Ionization_Penalty>
  0.0212

> <r_epik_State_Penalty>
  0.1438

> <i_epik_Tot_Q>
0

> <r_i_docking_score>
-5.78837446338783

> <r_i_glide_gscore>
-5.93217446338783

> <r_i_glide_emodel>
-53.1858407221698

> <s_m_subgroup_title>
nsp13-core1_lib_top-500_pv

> <s_m_subgroupid>
nsp13-core1_lib_top-500_pv

> <b_m_subgroup_collapsed>
0

$$$$
Core_1_EN300-177034_EN300-177034
                    3D
 Schrodinger Suite 2023-1.
  0  0  0     0  0            999 V3000
M  V30 BEGIN CTAB
M  V30 COUNTS 39 42 0 0 0
M  V30 BEGIN ATOM
M  V30 1 C  -40.3444 35.6358 -0.5228 0
M  V30 2 C  -39.6335 36.9860 -0.5222 0
M  V30 3 N  -39.5947 37.4406 -1.9138 0
M  V30 4 C  -40.4338 36.5709 -2.7471 0
M  V30 5 C  -41.2182 35.6775 -1.7697 0 CFG=1
M  V30 6 N  -41.4983 34.3338 -2.2736 0
M  V30 7 C  -42.5321 34.0200 -3.0699 0
M  V30 8 C  -42.7657 32.5822 -3.2992 0
M  V30 9 C  -42.3463 31.4828 -2.5491 0
M  V30 10 C  -42.8656 30.4480 -3.2614 0
M  V30 11 C  -43.5422 30.8815 -4.2942 0
M  V30 12 C  -44.0255 29.7883 -5.0498 0
M  V30 13 C  -43.5512 28.6821 -4.3503 0
M  V30 14 N  -42.8250 29.0872 -3.2103 0
M  V30 15 O  -43.5512 32.2227 -4.4004 0
M  V30 16 O  -43.2497 34.8601 -3.6097 0
M  V30 17 C  -38.8358 38.5012 -2.2816 0
M  V30 18 C  -38.7126 38.8827 -3.7112 0
M  V30 19 C  -39.5508 38.8574 -4.7958 0
M  V30 20 C  -38.8159 39.3762 -5.8958 0
M  V30 21 C  -37.5777 39.7680 -5.4869 0
M  V30 22 N  -37.5348 39.4832 -4.1373 0
M  V30 23 F  -39.2801 39.4859 -7.1637 0
M  V30 24 O  -38.1520 39.1153 -1.4606 0
M  V30 25 H  -40.9179 35.4628 0.3885 0
M  V30 26 H  -39.6013 34.8411 -0.6042 0
M  V30 27 H  -40.1930 37.7111 0.0702 0
M  V30 28 H  -38.6354 36.9004 -0.0899 0
M  V30 29 H  -39.7956 35.9818 -3.4080 0
M  V30 30 H  -41.1413 37.1289 -3.3560 0
M  V30 31 H  -42.1536 36.1784 -1.5121 0
M  V30 32 H  -40.9413 33.5799 -1.9032 0
M  V30 33 H  -41.7419 31.4543 -1.6534 0
M  V30 34 H  -44.5982 29.7916 -5.9647 0
M  V30 35 H  -43.6589 27.6307 -4.5669 0
M  V30 36 H  -42.3585 28.5015 -2.5237 0
M  V30 37 H  -40.5711 38.5172 -4.8101 0
M  V30 38 H  -36.7512 40.2206 -6.0101 0
M  V30 39 H  -36.7465 39.6621 -3.5297 0
M  V30 END ATOM
M  V30 BEGIN BOND
M  V30 1 1 1 2
M  V30 2 1 1 5
M  V30 3 1 1 25
M  V30 4 1 1 26
M  V30 5 1 2 3
M  V30 6 1 2 27
M  V30 7 1 2 28
M  V30 8 1 3 4
M  V30 9 1 3 17
M  V30 10 1 4 5
M  V30 11 1 4 29
M  V30 12 1 4 30
M  V30 13 1 5 6
M  V30 14 1 5 31
M  V30 15 1 6 7
M  V30 16 1 6 32
M  V30 17 1 7 8
M  V30 18 2 7 16
M  V30 19 2 8 9
M  V30 20 1 8 15
M  V30 21 1 9 10
M  V30 22 1 9 33
M  V30 23 2 10 11
M  V30 24 1 10 14
M  V30 25 1 11 12
M  V30 26 1 11 15
M  V30 27 2 12 13
M  V30 28 1 12 34
M  V30 29 1 13 14
M  V30 30 1 13 35
M  V30 31 1 14 36
M  V30 32 1 17 18
M  V30 33 2 17 24
M  V30 34 2 18 19
M  V30 35 1 18 22
M  V30 36 1 19 20
M  V30 37 1 19 37
M  V30 38 2 20 21
M  V30 39 1 20 23
M  V30 40 1 21 22
M  V30 41 1 21 38
M  V30 42 1 22 39
M  V30 END BOND
M  V30 END CTAB
M  END
> <s_m_entry_id>
224

> <i_f3d_flags>
0

> <r_lp_tautomer_probability>
1

> <r_epik_Ionization_Penalty>
  0.0002

> <r_epik_State_Penalty>
  0.0000

> <i_epik_Tot_Q>
0

> <r_i_docking_score>
-5.77975464554192

> <r_i_glide_gscore>
-5.77975464554192

> <r_i_glide_emodel>
-51.7201791243033

> <s_m_subgroup_title>
nsp13-core1_lib_top-500_pv

> <s_m_subgroupid>
nsp13-core1_lib_top-500_pv

> <b_m_subgroup_collapsed>
0

$$$$
Core_1_EN300-244044_EN300-244044
                    3D
 Schrodinger Suite 2023-1.
  0  0  0     0  0            999 V3000
M  V30 BEGIN CTAB
M  V30 COUNTS 39 41 0 0 0
M  V30 BEGIN ATOM
M  V30 1 C  -37.0967 39.8884 -3.0334 0
M  V30 2 C  -37.8181 39.3648 -4.2465 0
M  V30 3 C  -37.5522 39.6970 -5.6083 0
M  V30 4 N  -38.3523 39.0843 -6.4704 0
M  V30 5 N  -39.1505 38.3271 -5.6970 0
M  V30 6 C  -38.8554 38.4742 -4.3618 0
M  V30 7 C  -39.5507 37.7670 -3.2563 0
M  V30 8 N  -40.6309 37.0504 -3.6064 0
M  V30 9 C  -41.4911 36.2926 -2.7037 0 CFG=1
M  V30 10 C  -42.9447 36.7498 -2.8111 0
M  V30 11 C  -43.7670 35.4997 -2.5058 0
M  V30 12 N  -42.9142 34.3611 -2.8365 0
M  V30 13 C  -41.5403 34.8029 -3.0830 0
M  V30 14 C  -43.3629 33.0857 -2.8424 0
M  V30 15 C  -42.3966 31.9655 -3.2759 0
M  V30 16 C  -43.0643 30.7698 -3.9156 0
M  V30 17 C  -42.5929 29.4793 -3.8575 0
M  V30 18 S  -43.5500 28.3762 -4.8106 0
M  V30 19 C  -44.6043 29.7135 -5.2102 0
M  V30 20 N  -44.2142 30.8863 -4.7136 0
M  V30 21 O  -44.5189 32.8082 -2.5133 0
M  V30 22 O  -39.1562 37.8490 -2.0945 0
M  V30 23 H  -36.2576 40.5303 -3.3035 0
M  V30 24 H  -37.7588 40.4755 -2.3964 0
M  V30 25 H  -36.6877 39.0853 -2.4193 0
M  V30 26 H  -36.8078 40.3780 -5.9966 0
M  V30 27 H  -39.8886 37.7481 -6.0791 0
M  V30 28 H  -40.9377 37.0831 -4.5781 0
M  V30 29 H  -41.1706 36.3787 -1.6626 0
M  V30 30 H  -43.1667 37.0831 -3.8279 0
M  V30 31 H  -43.1708 37.5774 -2.1393 0
M  V30 32 H  -44.7002 35.4918 -3.0702 0
M  V30 33 H  -44.0149 35.4596 -1.4443 0
M  V30 34 H  -40.8191 34.2297 -2.4962 0
M  V30 35 H  -41.2992 34.6563 -4.1386 0
M  V30 36 H  -41.8417 31.6545 -2.3894 0
M  V30 37 H  -41.6580 32.3574 -3.9737 0
M  V30 38 H  -41.7226 29.1114 -3.3314 0
M  V30 39 H  -45.4810 29.6444 -5.8373 0
M  V30 END ATOM
M  V30 BEGIN BOND
M  V30 1 1 1 23
M  V30 2 1 1 24
M  V30 3 1 1 25
M  V30 4 1 1 2
M  V30 5 2 2 6
M  V30 6 1 2 3
M  V30 7 1 3 26
M  V30 8 2 3 4
M  V30 9 1 4 5
M  V30 10 1 5 27
M  V30 11 1 5 6
M  V30 12 1 6 7
M  V30 13 1 7 8
M  V30 14 2 7 22
M  V30 15 1 8 9
M  V30 16 1 8 28
M  V30 17 1 9 10
M  V30 18 1 9 13
M  V30 19 1 9 29
M  V30 20 1 10 11
M  V30 21 1 10 30
M  V30 22 1 10 31
M  V30 23 1 11 12
M  V30 24 1 11 32
M  V30 25 1 11 33
M  V30 26 1 12 13
M  V30 27 1 12 14
M  V30 28 1 13 34
M  V30 29 1 13 35
M  V30 30 1 14 15
M  V30 31 2 14 21
M  V30 32 1 15 16
M  V30 33 1 15 36
M  V30 34 1 15 37
M  V30 35 2 16 17
M  V30 36 1 16 20
M  V30 37 1 17 18
M  V30 38 1 17 38
M  V30 39 1 18 19
M  V30 40 2 19 20
M  V30 41 1 19 39
M  V30 END BOND
M  V30 END CTAB
M  END
> <s_m_entry_id>
225

> <i_f3d_flags>
0

> <r_lp_tautomer_probability>
0.5

> <r_epik_Ionization_Penalty>
  0.0000

> <r_epik_State_Penalty>
  0.4107

> <i_epik_Tot_Q>
0

> <r_i_docking_score>
-5.7784110207518

> <r_i_glide_gscore>
-6.1891110207518

> <r_i_glide_emodel>
-57.5411229429418

> <s_m_subgroup_title>
nsp13-core1_lib_top-500_pv

> <s_m_subgroupid>
nsp13-core1_lib_top-500_pv

> <b_m_subgroup_collapsed>
0

$$$$
Core_1_EN300-37400226_EN300-37400226
                    3D
 Schrodinger Suite 2023-1.
  0  0  0     0  0            999 V3000
M  V30 BEGIN CTAB
M  V30 COUNTS 47 51 0 0 0
M  V30 BEGIN ATOM
M  V30 1 C  -37.2922 42.3313 -5.8142 0
M  V30 2 N  -38.4246 41.5989 -5.2451 0 CFG=1
M  V30 3 C  -39.7560 42.1016 -5.5855 0
M  V30 4 C  -40.7581 41.0717 -5.0752 0 CFG=1
M  V30 5 C  -41.1543 39.8835 -5.9204 0
M  V30 6 C  -40.1727 39.6953 -4.7863 0 CFG=2
M  V30 7 C  -40.5495 38.9662 -3.5244 0
M  V30 8 N  -40.2402 37.6511 -3.4339 0
M  V30 9 C  -39.3918 36.8981 -4.3553 0
M  V30 10 C  -39.6629 35.4236 -4.0920 0
M  V30 11 C  -40.2240 35.3622 -2.6718 0 CFG=1
M  V30 12 C  -40.8044 36.7661 -2.4076 0
M  V30 13 N  -41.1266 34.2155 -2.4881 0
M  V30 14 C  -42.3137 33.9941 -3.0800 0
M  V30 15 C  -42.6912 32.5768 -3.2320 0
M  V30 16 C  -42.2964 31.4580 -2.4957 0
M  V30 17 C  -42.8468 30.4475 -3.2194 0
M  V30 18 C  -43.5415 30.9069 -4.2263 0
M  V30 19 C  -44.0453 29.8338 -5.0010 0
M  V30 20 C  -43.5532 28.7064 -4.3477 0
M  V30 21 N  -42.8120 29.0836 -3.2102 0
M  V30 22 O  -43.5330 32.2504 -4.3047 0
M  V30 23 O  -42.9934 34.8696 -3.6103 0
M  V30 24 O  -41.1872 39.5355 -2.6379 0
M  V30 25 S  -38.3885 39.8869 -5.2055 0
M  V30 26 O  -38.1630 39.4174 -6.5827 0
M  V30 27 O  -37.5032 39.4836 -4.1032 0
M  V30 28 H  -37.3688 43.3940 -5.5855 0
M  V30 29 H  -36.3575 41.9549 -5.3955 0
M  V30 30 H  -37.2606 42.2059 -6.8964 0
M  V30 31 H  -39.9280 43.0688 -5.1134 0
M  V30 32 H  -39.8573 42.2140 -6.6666 0
M  V30 33 H  -41.5188 41.4612 -4.3991 0
M  V30 34 H  -42.1582 39.4842 -5.7838 0
M  V30 35 H  -40.7666 39.8039 -6.9332 0
M  V30 36 H  -39.5513 37.1438 -5.4045 0
M  V30 37 H  -38.3546 37.1184 -4.1211 0
M  V30 38 H  -40.4062 35.0832 -4.8129 0
M  V30 39 H  -38.7702 34.8094 -4.2178 0
M  V30 40 H  -39.3823 35.2255 -1.9908 0
M  V30 41 H  -40.5378 37.1140 -1.4094 0
M  V30 42 H  -41.8906 36.7959 -2.4779 0
M  V30 43 H  -40.6994 33.4089 -2.0591 0
M  V30 44 H  -41.6512 31.3994 -1.6310 0
M  V30 45 H  -44.6340 29.8625 -5.9069 0
M  V30 46 H  -43.6646 27.6605 -4.5912 0
M  V30 47 H  -42.3516 28.4793 -2.5377 0
M  V30 END ATOM
M  V30 BEGIN BOND
M  V30 1 1 1 2
M  V30 2 1 1 28
M  V30 3 1 1 29
M  V30 4 1 1 30
M  V30 5 1 2 3
M  V30 6 1 2 25
M  V30 7 1 3 4
M  V30 8 1 3 31
M  V30 9 1 3 32
M  V30 10 1 4 5
M  V30 11 1 4 6
M  V30 12 1 4 33
M  V30 13 1 5 6
M  V30 14 1 5 34
M  V30 15 1 5 35
M  V30 16 1 6 7
M  V30 17 1 6 25
M  V30 18 1 7 8
M  V30 19 2 7 24
M  V30 20 1 8 9
M  V30 21 1 8 12
M  V30 22 1 9 10
M  V30 23 1 9 36
M  V30 24 1 9 37
M  V30 25 1 10 11
M  V30 26 1 10 38
M  V30 27 1 10 39
M  V30 28 1 11 12
M  V30 29 1 11 13
M  V30 30 1 11 40
M  V30 31 1 12 41
M  V30 32 1 12 42
M  V30 33 1 13 14
M  V30 34 1 13 43
M  V30 35 1 14 15
M  V30 36 2 14 23
M  V30 37 2 15 16
M  V30 38 1 15 22
M  V30 39 1 16 17
M  V30 40 1 16 44
M  V30 41 2 17 18
M  V30 42 1 17 21
M  V30 43 1 18 19
M  V30 44 1 18 22
M  V30 45 2 19 20
M  V30 46 1 19 45
M  V30 47 1 20 21
M  V30 48 1 20 46
M  V30 49 1 21 47
M  V30 50 2 25 26
M  V30 51 2 25 27
M  V30 END BOND
M  V30 END CTAB
M  END
> <s_m_entry_id>
227

> <i_f3d_flags>
0

> <r_lp_tautomer_probability>
1

> <r_epik_Ionization_Penalty>
  0.0000

> <r_epik_State_Penalty>
  0.0000

> <i_epik_Tot_Q>
0

> <r_i_docking_score>
-5.77724314097784

> <r_i_glide_gscore>
-5.77724314097784

> <r_i_glide_emodel>
-50.0139871856627

> <s_m_subgroup_title>
nsp13-core1_lib_top-500_pv

> <s_m_subgroupid>
nsp13-core1_lib_top-500_pv

> <b_m_subgroup_collapsed>
0

$$$$
Core_1_EN300-71405_EN300-71405
                    3D
 Schrodinger Suite 2023-1.
  0  0  0     0  0            999 V3000
M  V30 BEGIN CTAB
M  V30 COUNTS 46 49 0 0 0
M  V30 BEGIN ATOM
M  V30 1 C  -40.1929 34.7537 -3.7230 0
M  V30 2 C  -39.4401 35.9488 -4.2939 0
M  V30 3 N  -39.9551 37.1367 -3.6103 0
M  V30 4 C  -40.9322 36.7529 -2.5886 0
M  V30 5 C  -40.7306 35.2478 -2.3827 0 CFG=1
M  V30 6 N  -41.9028 34.5150 -1.8991 0
M  V30 7 C  -43.0680 34.2922 -2.5308 0
M  V30 8 C  -44.0045 33.2728 -1.8773 0
M  V30 9 C  -43.7802 31.9094 -2.5111 0
M  V30 10 C  -42.7067 31.0956 -2.0801 0
M  V30 11 C  -42.4502 29.8834 -2.7502 0
M  V30 12 C  -43.2621 29.5168 -3.8414 0
M  V30 13 C  -43.3165 28.4355 -4.7809 0
M  V30 14 C  -44.3760 28.6839 -5.6082 0
M  V30 15 N  -44.9931 29.8590 -5.2104 0
M  V30 16 C  -44.3235 30.4097 -4.1430 0
M  V30 17 N  -44.6310 31.5748 -3.5121 0
M  V30 18 O  -43.3823 34.8157 -3.6007 0
M  V30 19 C  -39.6180 38.4213 -3.8698 0
M  V30 20 C  -38.5879 38.7347 -4.9712 0
M  V30 21 C  -39.1226 39.6474 -6.0365 0
M  V30 22 C  -38.5517 40.7276 -6.6472 0
M  V30 23 C  -39.5170 41.1436 -7.6092 0
M  V30 24 N  -40.6001 40.3847 -7.6103 0
M  V30 25 N  -40.3520 39.4838 -6.6410 0
M  V30 26 O  -40.1119 39.3597 -3.2431 0
M  V30 27 H  -39.5488 33.8859 -3.6101 0
M  V30 28 H  -40.9935 34.4817 -4.4094 0
M  V30 29 H  -38.3838 35.8325 -4.0756 0
M  V30 30 H  -39.5522 36.0071 -5.3771 0
M  V30 31 H  -41.9301 36.9844 -2.9671 0
M  V30 32 H  -40.7921 37.3035 -1.6555 0
M  V30 33 H  -39.9420 35.1176 -1.6406 0
M  V30 34 H  -41.7720 34.0342 -1.0206 0
M  V30 35 H  -45.0395 33.5890 -2.0075 0
M  V30 36 H  -43.8247 33.2162 -0.8028 0
M  V30 37 H  -42.0763 31.3984 -1.2556 0
M  V30 38 H  -41.6363 29.2413 -2.4446 0
M  V30 39 H  -42.6434 27.5954 -4.8192 0
M  V30 40 H  -44.7491 28.1055 -6.4375 0
M  V30 41 H  -45.7842 30.2678 -5.6917 0
M  V30 42 H  -37.7293 39.2053 -4.4912 0
M  V30 43 H  -38.1998 37.8380 -5.4471 0
M  V30 44 H  -37.5789 41.1519 -6.4499 0
M  V30 45 H  -39.4572 41.9632 -8.3094 0
M  V30 46 H  -41.0165 38.7479 -6.4100 0
M  V30 END ATOM
M  V30 BEGIN BOND
M  V30 1 1 1 2
M  V30 2 1 1 5
M  V30 3 1 1 27
M  V30 4 1 1 28
M  V30 5 1 2 3
M  V30 6 1 2 29
M  V30 7 1 2 30
M  V30 8 1 3 4
M  V30 9 1 3 19
M  V30 10 1 4 5
M  V30 11 1 4 31
M  V30 12 1 4 32
M  V30 13 1 5 6
M  V30 14 1 5 33
M  V30 15 1 6 7
M  V30 16 1 6 34
M  V30 17 1 7 8
M  V30 18 2 7 18
M  V30 19 1 8 9
M  V30 20 1 8 35
M  V30 21 1 8 36
M  V30 22 2 9 10
M  V30 23 1 9 17
M  V30 24 1 10 11
M  V30 25 1 10 37
M  V30 26 2 11 12
M  V30 27 1 11 38
M  V30 28 1 12 13
M  V30 29 1 12 16
M  V30 30 2 13 14
M  V30 31 1 13 39
M  V30 32 1 14 15
M  V30 33 1 14 40
M  V30 34 1 15 16
M  V30 35 1 15 41
M  V30 36 2 16 17
M  V30 37 1 19 20
M  V30 38 2 19 26
M  V30 39 1 20 21
M  V30 40 1 20 42
M  V30 41 1 20 43
M  V30 42 2 21 22
M  V30 43 1 21 25
M  V30 44 1 22 23
M  V30 45 1 22 44
M  V30 46 2 23 24
M  V30 47 1 23 45
M  V30 48 1 24 25
M  V30 49 1 25 46
M  V30 END BOND
M  V30 END CTAB
M  END
> <s_m_entry_id>
230

> <i_f3d_flags>
0

> <r_lp_tautomer_probability>
0.499999216264228

> <r_epik_Ionization_Penalty>
  0.0015

> <r_epik_State_Penalty>
  0.4120

> <i_epik_Tot_Q>
0

> <r_i_docking_score>
-5.77477363816822

> <r_i_glide_gscore>
-6.18677363816822

> <r_i_glide_emodel>
-62.124173219586

> <s_m_subgroup_title>
nsp13-core1_lib_top-500_pv

> <s_m_subgroupid>
nsp13-core1_lib_top-500_pv

> <b_m_subgroup_collapsed>
0

$$$$
Core_1_EN300-6760451_EN300-6760451
                    3D
 Schrodinger Suite 2023-1.
  0  0  0     0  0            999 V3000
M  V30 BEGIN CTAB
M  V30 COUNTS 40 43 0 0 0
M  V30 BEGIN ATOM
M  V30 1 C  -39.9717 36.9019 -1.5651 0
M  V30 2 C  -40.5125 35.6624 -0.8517 0
M  V30 3 N  -41.2035 34.8851 -1.8786 0
M  V30 4 C  -40.8958 35.4092 -3.2102 0
M  V30 5 C  -39.7823 36.4447 -3.0106 0 CFG=1
M  V30 6 N  -39.8767 37.5100 -4.0067 0
M  V30 7 C  -39.0973 38.6015 -4.0780 0
M  V30 8 C  -39.1403 39.3581 -5.3493 0
M  V30 9 C  -38.3522 40.4252 -5.6696 0
M  V30 10 C  -38.8019 40.7413 -6.9848 0
M  V30 11 N  -39.7551 39.9409 -7.4411 0
M  V30 12 N  -39.9513 39.0838 -6.4214 0
M  V30 13 O  -38.3515 41.7282 -7.8040 0
M  V30 14 O  -38.3503 38.9556 -3.1671 0
M  V30 15 C  -41.9525 33.7973 -1.5892 0
M  V30 16 C  -42.7354 33.1845 -2.7092 0
M  V30 17 N  -43.5509 33.8061 -3.5674 0
M  V30 18 N  -44.1125 32.8663 -4.4104 0
M  V30 19 C  -43.6405 31.6742 -4.0601 0
M  V30 20 C  -43.8425 30.3640 -4.5690 0
M  V30 21 C  -43.1887 29.3055 -3.9848 0
M  V30 22 C  -42.3510 29.5189 -2.8665 0
M  V30 23 C  -42.1768 30.7807 -2.3489 0
M  V30 24 N  -42.7874 31.8375 -2.9544 0
M  V30 25 O  -41.9888 33.2924 -0.4680 0
M  V30 26 H  -39.0519 37.2741 -1.1141 0
M  V30 27 H  -40.7136 37.7006 -1.5166 0
M  V30 28 H  -39.6954 35.0647 -0.4466 0
M  V30 29 H  -41.1747 35.9326 -0.0274 0
M  V30 30 H  -41.7923 35.8848 -3.6120 0
M  V30 31 H  -40.5858 34.6231 -3.8987 0
M  V30 32 H  -38.8154 35.9469 -3.1030 0
M  V30 33 H  -40.5181 37.3338 -4.7736 0
M  V30 34 H  -37.5895 40.8959 -5.0661 0
M  V30 35 H  -37.4466 41.9376 -7.6226 0
M  V30 36 H  -40.6644 38.3577 -6.4450 0
M  V30 37 H  -44.4891 30.2161 -5.4275 0
M  V30 38 H  -43.3188 28.3024 -4.3786 0
M  V30 39 H  -41.8331 28.6833 -2.4103 0
M  V30 40 H  -41.5514 30.9847 -1.4850 0
M  V30 END ATOM
M  V30 BEGIN BOND
M  V30 1 1 1 2
M  V30 2 1 1 5
M  V30 3 1 1 26
M  V30 4 1 1 27
M  V30 5 1 2 3
M  V30 6 1 2 28
M  V30 7 1 2 29
M  V30 8 1 3 4
M  V30 9 1 3 15
M  V30 10 1 4 5
M  V30 11 1 4 30
M  V30 12 1 4 31
M  V30 13 1 5 6
M  V30 14 1 5 32
M  V30 15 1 6 7
M  V30 16 1 6 33
M  V30 17 2 7 14
M  V30 18 1 7 8
M  V30 19 2 8 9
M  V30 20 1 8 12
M  V30 21 1 9 34
M  V30 22 1 9 10
M  V30 23 2 10 11
M  V30 24 1 10 13
M  V30 25 1 11 12
M  V30 26 1 12 36
M  V30 27 1 13 35
M  V30 28 1 15 16
M  V30 29 2 15 25
M  V30 30 2 16 17
M  V30 31 1 16 24
M  V30 32 1 17 18
M  V30 33 2 18 19
M  V30 34 1 19 20
M  V30 35 1 19 24
M  V30 36 2 20 21
M  V30 37 1 20 37
M  V30 38 1 21 22
M  V30 39 1 21 38
M  V30 40 2 22 23
M  V30 41 1 22 39
M  V30 42 1 23 24
M  V30 43 1 23 40
M  V30 END BOND
M  V30 END CTAB
M  END
> <s_m_entry_id>
233

> <i_f3d_flags>
0

> <r_lp_tautomer_probability>
0.966084542645576

> <r_epik_Ionization_Penalty>
  0.2485

> <r_epik_State_Penalty>
  0.3555

> <i_epik_Tot_Q>
0

> <r_i_docking_score>
-5.76600788516677

> <r_i_glide_gscore>
-6.12150788516677

> <r_i_glide_emodel>
-60.1576805442509

> <s_m_subgroup_title>
nsp13-core1_lib_top-500_pv

> <s_m_subgroupid>
nsp13-core1_lib_top-500_pv

> <b_m_subgroup_collapsed>
0

$$$$
Core_1_EN300-30580_EN300-30580
                    3D
 Schrodinger Suite 2023-1.
  0  0  0     0  0            999 V3000
M  V30 BEGIN CTAB
M  V30 COUNTS 45 48 0 0 0
M  V30 BEGIN ATOM
M  V30 1 C  -37.7363 42.9398 -7.2640 0
M  V30 2 S  -39.1254 41.9811 -7.9331 0
M  V30 3 C  -39.7261 41.0563 -6.5438 0
M  V30 4 C  -41.0518 40.6377 -6.5272 0
M  V30 5 C  -41.4702 39.8847 -5.3598 0
M  V30 6 C  -40.5975 39.6039 -4.3711 0
M  V30 7 C  -39.2112 40.1039 -4.4260 0
M  V30 8 N  -38.8409 40.7906 -5.5449 0 CHG=-1
M  V30 9 O  -38.4223 39.9117 -3.4999 0
M  V30 10 C  -41.0095 38.8119 -3.2116 0
M  V30 11 N  -40.4560 37.5768 -3.1069 0
M  V30 12 C  -39.4757 36.9562 -4.0038 0
M  V30 13 C  -39.6709 35.4520 -3.8701 0
M  V30 14 C  -40.2714 35.2586 -2.4764 0 CFG=1
M  V30 15 C  -40.9233 36.6051 -2.1151 0
M  V30 16 N  -41.1513 34.0873 -2.4068 0
M  V30 17 C  -42.3083 33.8915 -3.0604 0
M  V30 18 C  -42.7099 32.4873 -3.2217 0
M  V30 19 C  -42.3513 31.3677 -2.4709 0
M  V30 20 C  -42.9092 30.3688 -3.2012 0
M  V30 21 C  -43.5607 30.8373 -4.2334 0
M  V30 22 C  -44.0200 29.7732 -5.0446 0
M  V30 23 C  -43.5511 28.6433 -4.3818 0
M  V30 24 N  -42.8569 29.0105 -3.2107 0
M  V30 25 O  -43.5203 32.1780 -4.3209 0
M  V30 26 O  -42.9514 34.7823 -3.6102 0
M  V30 27 O  -41.8873 39.1854 -2.4300 0
M  V30 28 C  -41.9731 40.9009 -7.5791 0
M  V30 29 N  -42.7507 41.0836 -8.4167 0
M  V30 30 H  -37.2599 43.5185 -8.0543 0
M  V30 31 H  -36.9899 42.2846 -6.8155 0
M  V30 32 H  -38.0924 43.6246 -6.4946 0
M  V30 33 H  -42.4835 39.5118 -5.3060 0
M  V30 34 H  -39.5513 37.2646 -5.0472 0
M  V30 35 H  -38.4832 37.2392 -3.6594 0
M  V30 36 H  -40.3626 35.1296 -4.6487 0
M  V30 37 H  -38.7452 34.8940 -4.0088 0
M  V30 38 H  -39.4496 35.0935 -1.7787 0
M  V30 39 H  -40.6266 36.9218 -1.1145 0
M  V30 40 H  -42.0122 36.5624 -2.1228 0
M  V30 41 H  -40.7405 33.2674 -1.9855 0
M  V30 42 H  -41.7242 31.3004 -1.5936 0
M  V30 43 H  -44.5596 29.8091 -5.9796 0
M  V30 44 H  -43.6404 27.5994 -4.6445 0
M  V30 45 H  -42.3977 28.4041 -2.5376 0
M  V30 END ATOM
M  V30 BEGIN BOND
M  V30 1 1 1 2
M  V30 2 1 1 30
M  V30 3 1 1 31
M  V30 4 1 1 32
M  V30 5 1 2 3
M  V30 6 2 3 4
M  V30 7 1 3 8
M  V30 8 1 4 5
M  V30 9 1 4 28
M  V30 10 2 5 6
M  V30 11 1 5 33
M  V30 12 1 6 7
M  V30 13 1 6 10
M  V30 14 1 7 8
M  V30 15 2 7 9
M  V30 16 1 10 11
M  V30 17 2 10 27
M  V30 18 1 11 12
M  V30 19 1 11 15
M  V30 20 1 12 13
M  V30 21 1 12 34
M  V30 22 1 12 35
M  V30 23 1 13 14
M  V30 24 1 13 36
M  V30 25 1 13 37
M  V30 26 1 14 15
M  V30 27 1 14 16
M  V30 28 1 14 38
M  V30 29 1 15 39
M  V30 30 1 15 40
M  V30 31 1 16 17
M  V30 32 1 16 41
M  V30 33 1 17 18
M  V30 34 2 17 26
M  V30 35 2 18 19
M  V30 36 1 18 25
M  V30 37 1 19 20
M  V30 38 1 19 42
M  V30 39 2 20 21
M  V30 40 1 20 24
M  V30 41 1 21 22
M  V30 42 1 21 25
M  V30 43 2 22 23
M  V30 44 1 22 43
M  V30 45 1 23 24
M  V30 46 1 23 44
M  V30 47 1 24 45
M  V30 48 3 28 29
M  V30 END BOND
M  V30 END CTAB
M  END
> <s_m_entry_id>
234

> <i_f3d_flags>
0

> <r_epik_Ionization_Penalty>
  0.0255

> <r_epik_State_Penalty>
  0.0254

> <i_epik_Tot_Q>
-1

> <r_i_docking_score>
-5.76574024012753

> <r_i_glide_gscore>
-5.79114024012753

> <r_i_glide_emodel>
-52.8634412928016

> <s_m_subgroup_title>
nsp13-core1_lib_top-500_pv

> <s_m_subgroupid>
nsp13-core1_lib_top-500_pv

> <b_m_subgroup_collapsed>
0

$$$$
Core_1_EN300-96997_EN300-96997
                    3D
 Schrodinger Suite 2023-1.
  0  0  0     0  0            999 V3000
M  V30 BEGIN CTAB
M  V30 COUNTS 36 38 0 0 0
M  V30 BEGIN ATOM
M  V30 1 C  -42.6766 35.9156 -2.7121 0
M  V30 2 C  -43.6161 34.7236 -2.5622 0
M  V30 3 N  -42.8919 33.5508 -3.0512 0
M  V30 4 C  -41.4813 33.8869 -3.2936 0
M  V30 5 C  -41.2741 35.3144 -2.7610 0 CFG=1
M  V30 6 N  -40.3983 36.1203 -3.6101 0
M  V30 7 C  -39.6699 37.1619 -3.1747 0
M  V30 8 C  -39.0462 38.0230 -4.2073 0
M  V30 9 C  -38.2611 39.1102 -3.9539 0
M  V30 10 C  -37.9218 39.5501 -5.2653 0
M  V30 11 N  -38.4438 38.8185 -6.2402 0
M  V30 12 N  -39.1505 37.8804 -5.5728 0
M  V30 13 O  -37.1522 40.6159 -5.6098 0
M  V30 14 O  -39.5273 37.4215 -1.9799 0
M  V30 15 C  -43.5243 32.3772 -3.2930 0
M  V30 16 C  -42.6622 31.2530 -3.6160 0
M  V30 17 C  -43.1750 30.1779 -4.2371 0
M  V30 18 C  -44.3553 29.5359 -4.8464 0
M  V30 19 C  -42.9539 28.8243 -4.7762 0
M  V30 20 O  -44.7491 32.2756 -3.2091 0
M  V30 21 H  -42.9051 36.4285 -3.6481 0
M  V30 22 H  -42.7907 36.6426 -1.9086 0
M  V30 23 H  -44.5501 34.8940 -3.1000 0
M  V30 24 H  -43.8594 34.5665 -1.5097 0
M  V30 25 H  -40.7971 33.2030 -2.7897 0
M  V30 26 H  -41.2853 33.8287 -4.3660 0
M  V30 27 H  -40.8826 35.2427 -1.7446 0
M  V30 28 H  -40.5043 36.0113 -4.6080 0
M  V30 29 H  -37.9722 39.5203 -2.9974 0
M  V30 30 H  -36.9455 40.6258 -6.5353 0
M  V30 31 H  -39.7484 37.2138 -6.0468 0
M  V30 32 H  -41.6261 31.2358 -3.3186 0
M  V30 33 H  -45.1409 29.1290 -4.2156 0
M  V30 34 H  -44.6952 29.8495 -5.8321 0
M  V30 35 H  -42.8638 27.9817 -4.0934 0
M  V30 36 H  -42.4262 28.6843 -5.7162 0
M  V30 END ATOM
M  V30 BEGIN BOND
M  V30 1 1 1 2
M  V30 2 1 1 5
M  V30 3 1 1 21
M  V30 4 1 1 22
M  V30 5 1 2 3
M  V30 6 1 2 23
M  V30 7 1 2 24
M  V30 8 1 3 4
M  V30 9 1 3 15
M  V30 10 1 4 5
M  V30 11 1 4 25
M  V30 12 1 4 26
M  V30 13 1 5 6
M  V30 14 1 5 27
M  V30 15 1 6 7
M  V30 16 1 6 28
M  V30 17 2 7 14
M  V30 18 1 7 8
M  V30 19 2 8 9
M  V30 20 1 8 12
M  V30 21 1 9 29
M  V30 22 1 9 10
M  V30 23 2 10 11
M  V30 24 1 10 13
M  V30 25 1 11 12
M  V30 26 1 12 31
M  V30 27 1 13 30
M  V30 28 1 15 16
M  V30 29 2 15 20
M  V30 30 2 16 17
M  V30 31 1 16 32
M  V30 32 1 17 18
M  V30 33 1 17 19
M  V30 34 1 18 19
M  V30 35 1 18 33
M  V30 36 1 18 34
M  V30 37 1 19 35
M  V30 38 1 19 36
M  V30 END BOND
M  V30 END CTAB
M  END
> <s_m_entry_id>
238

> <i_f3d_flags>
0

> <r_lp_tautomer_probability>
0.966084542645576

> <r_epik_Ionization_Penalty>
  0.2468

> <r_epik_State_Penalty>
  0.3510

> <i_epik_Tot_Q>
0

> <r_i_docking_score>
-5.76054053303206

> <r_i_glide_gscore>
-6.11154053303206

> <r_i_glide_emodel>
-50.9319565958252

> <s_m_subgroup_title>
nsp13-core1_lib_top-500_pv

> <s_m_subgroupid>
nsp13-core1_lib_top-500_pv

> <b_m_subgroup_collapsed>
0

$$$$
Core_1_EN300-19272_EN300-19272
                    3D
 Schrodinger Suite 2023-1.
  0  0  0     0  0            999 V3000
M  V30 BEGIN CTAB
M  V30 COUNTS 39 40 0 0 0
M  V30 BEGIN ATOM
M  V30 1 C  -39.8146 34.9092 -3.6266 0
M  V30 2 C  -40.3406 35.9652 -2.6416 0
M  V30 3 C  -39.8400 37.3691 -3.0257 0
M  V30 4 C  -39.9530 35.6007 -1.1920 0
M  V30 5 N  -40.7995 34.8581 -0.4444 0
M  V30 6 C  -40.5200 34.4681 0.9351 0
M  V30 7 C  -41.5212 33.3650 1.2802 0
M  V30 8 C  -42.6850 33.5611 0.3101 0 CFG=1
M  V30 9 C  -42.0461 34.2538 -0.9051 0
M  V30 10 N  -43.3156 32.2838 -0.0103 0
M  V30 11 C  -44.1561 32.0332 -1.0252 0
M  V30 12 C  -44.5708 30.5724 -1.2234 0
M  V30 13 C  -44.1521 30.1348 -2.5972 0
M  V30 14 N  -44.7515 30.4867 -3.7340 0
M  V30 15 C  -44.0693 29.7981 -4.7373 0
M  V30 16 C  -43.0731 29.0384 -4.1735 0
M  V30 17 N  -43.1529 29.2683 -2.8103 0
M  V30 18 O  -44.5822 32.9072 -1.7828 0
M  V30 19 O  -38.8770 35.9999 -0.7438 0
M  V30 20 H  -40.1923 33.9136 -3.3936 0
M  V30 21 H  -38.7255 34.8603 -3.6191 0
M  V30 22 H  -40.1283 35.1458 -4.6432 0
M  V30 23 H  -41.4244 36.0036 -2.7325 0
M  V30 24 H  -40.1822 38.1215 -2.3147 0
M  V30 25 H  -38.7511 37.4129 -3.0589 0
M  V30 26 H  -40.2100 37.6579 -4.0100 0
M  V30 27 H  -39.4934 34.1205 1.0640 0
M  V30 28 H  -40.6657 35.3344 1.5818 0
M  V30 29 H  -41.0490 32.3944 1.1132 0
M  V30 30 H  -41.8360 33.3905 2.3241 0
M  V30 31 H  -43.4206 34.2271 0.7638 0
M  V30 32 H  -42.7361 34.9933 -1.3124 0
M  V30 33 H  -41.8091 33.5364 -1.6923 0
M  V30 34 H  -43.1511 31.5358 0.6648 0
M  V30 35 H  -44.1143 29.9277 -0.4697 0
M  V30 36 H  -45.6530 30.4814 -1.1249 0
M  V30 37 H  -44.3538 29.8911 -5.7754 0
M  V30 38 H  -42.3521 28.3648 -4.6122 0
M  V30 39 H  -42.5926 28.8162 -2.0950 0
M  V30 END ATOM
M  V30 BEGIN BOND
M  V30 1 1 1 2
M  V30 2 1 1 20
M  V30 3 1 1 21
M  V30 4 1 1 22
M  V30 5 1 2 3
M  V30 6 1 2 4
M  V30 7 1 2 23
M  V30 8 1 3 24
M  V30 9 1 3 25
M  V30 10 1 3 26
M  V30 11 1 4 5
M  V30 12 2 4 19
M  V30 13 1 5 6
M  V30 14 1 5 9
M  V30 15 1 6 7
M  V30 16 1 6 27
M  V30 17 1 6 28
M  V30 18 1 7 8
M  V30 19 1 7 29
M  V30 20 1 7 30
M  V30 21 1 8 9
M  V30 22 1 8 10
M  V30 23 1 8 31
M  V30 24 1 9 32
M  V30 25 1 9 33
M  V30 26 1 10 11
M  V30 27 1 10 34
M  V30 28 1 11 12
M  V30 29 2 11 18
M  V30 30 1 12 13
M  V30 31 1 12 35
M  V30 32 1 12 36
M  V30 33 2 13 14
M  V30 34 1 13 17
M  V30 35 1 14 15
M  V30 36 2 15 16
M  V30 37 1 15 37
M  V30 38 1 16 17
M  V30 39 1 16 38
M  V30 40 1 17 39
M  V30 END BOND
M  V30 END CTAB
M  END
> <s_m_entry_id>
247

> <i_f3d_flags>
0

> <r_lp_tautomer_probability>
0.499999999999999

> <r_epik_Ionization_Penalty>
  0.0877

> <r_epik_State_Penalty>
  0.0877

> <i_epik_Tot_Q>
0

> <r_i_docking_score>
-5.75393218165214

> <r_i_glide_gscore>
-5.84163218165214

> <r_i_glide_emodel>
-44.8236884892323

> <s_m_subgroup_title>
nsp13-core1_lib_top-500_pv

> <s_m_subgroupid>
nsp13-core1_lib_top-500_pv

> <b_m_subgroup_collapsed>
0

$$$$
Core_1_EN300-18459_EN300-18459
                    3D
 Schrodinger Suite 2023-1.
  0  0  0     0  0            999 V3000
M  V30 BEGIN CTAB
M  V30 COUNTS 39 41 0 0 0
M  V30 BEGIN ATOM
M  V30 1 C  -42.6850 34.6746 -0.2662 0
M  V30 2 C  -43.7068 33.5786 0.0219 0
M  V30 3 N  -43.4141 32.5174 -0.9389 0
M  V30 4 C  -42.0077 32.5853 -1.3442 0
M  V30 5 C  -41.4681 33.9225 -0.8023 0 CFG=1
M  V30 6 N  -40.6850 34.7059 -1.7595 0
M  V30 7 C  -40.9842 35.0387 -3.0262 0
M  V30 8 C  -39.9475 35.8943 -3.7486 0
M  V30 9 S  -39.9041 37.6020 -3.1207 0
M  V30 10 C  -38.9426 38.3611 -4.3863 0
M  V30 11 N  -37.9487 39.2155 -4.1721 0
M  V30 12 C  -37.5677 39.4886 -5.4561 0
M  V30 13 N  -38.2675 38.8773 -6.4102 0
M  V30 14 N  -39.1513 38.1569 -5.6868 0
M  V30 15 O  -42.0123 34.6901 -3.6097 0
M  V30 16 C  -44.3843 31.7607 -1.4996 0
M  V30 17 C  -44.0184 30.8532 -2.6399 0
M  V30 18 C  -43.0038 29.8833 -2.5085 0
M  V30 19 C  -42.7316 29.0389 -3.5979 0
M  V30 20 C  -43.4818 29.1774 -4.7781 0
M  V30 21 C  -44.4809 30.1631 -4.8108 0
M  V30 22 N  -44.7514 30.9797 -3.7721 0
M  V30 23 O  -45.5694 31.8429 -1.1711 0
M  V30 24 H  -42.4543 35.2741 0.6145 0
M  V30 25 H  -43.0915 35.3454 -1.0244 0
M  V30 26 H  -43.5716 33.1776 1.0277 0
M  V30 27 H  -44.7228 33.9678 -0.0503 0
M  V30 28 H  -41.8994 32.4885 -2.4238 0
M  V30 29 H  -41.4599 31.7562 -0.8946 0
M  V30 30 H  -40.8145 33.6987 0.0426 0
M  V30 31 H  -39.8151 35.0757 -1.4032 0
M  V30 32 H  -40.1781 35.8827 -4.8106 0
M  V30 33 H  -38.9599 35.4452 -3.6407 0
M  V30 34 H  -36.7527 40.1582 -5.6924 0
M  V30 35 H  -39.8889 37.5902 -6.0921 0
M  V30 36 H  -42.4538 29.7632 -1.5855 0
M  V30 37 H  -41.9639 28.2856 -3.5151 0
M  V30 38 H  -43.3002 28.5402 -5.6321 0
M  V30 39 H  -45.0924 30.2899 -5.6911 0
M  V30 END ATOM
M  V30 BEGIN BOND
M  V30 1 1 1 2
M  V30 2 1 1 5
M  V30 3 1 1 24
M  V30 4 1 1 25
M  V30 5 1 2 3
M  V30 6 1 2 26
M  V30 7 1 2 27
M  V30 8 1 3 4
M  V30 9 1 3 16
M  V30 10 1 4 5
M  V30 11 1 4 28
M  V30 12 1 4 29
M  V30 13 1 5 6
M  V30 14 1 5 30
M  V30 15 1 6 7
M  V30 16 1 6 31
M  V30 17 1 7 8
M  V30 18 2 7 15
M  V30 19 1 8 9
M  V30 20 1 8 32
M  V30 21 1 8 33
M  V30 22 1 9 10
M  V30 23 2 10 11
M  V30 24 1 10 14
M  V30 25 1 11 12
M  V30 26 2 12 13
M  V30 27 1 12 34
M  V30 28 1 13 14
M  V30 29 1 14 35
M  V30 30 1 16 17
M  V30 31 2 16 23
M  V30 32 2 17 18
M  V30 33 1 17 22
M  V30 34 1 18 19
M  V30 35 1 18 36
M  V30 36 2 19 20
M  V30 37 1 19 37
M  V30 38 1 20 21
M  V30 39 1 20 38
M  V30 40 2 21 22
M  V30 41 1 21 39
M  V30 END BOND
M  V30 END CTAB
M  END
> <s_m_entry_id>
248

> <i_f3d_flags>
0

> <r_lp_tautomer_probability>
0.5726006379666

> <r_epik_Ionization_Penalty>
  0.0520

> <r_epik_State_Penalty>
  0.3304

> <i_epik_Tot_Q>
0

> <r_i_docking_score>
-5.75351552862286

> <r_i_glide_gscore>
-6.08391552862286

> <r_i_glide_emodel>
-58.452018488865

> <s_m_subgroup_title>
nsp13-core1_lib_top-500_pv

> <s_m_subgroupid>
nsp13-core1_lib_top-500_pv

> <b_m_subgroup_collapsed>
0

$$$$
Core_1_EN300-736517_EN300-736517
                    3D
 Schrodinger Suite 2023-1.
  0  0  0     0  0            999 V3000
M  V30 BEGIN CTAB
M  V30 COUNTS 50 54 0 0 0
M  V30 BEGIN ATOM
M  V30 1 C  -39.9990 37.8890 -1.9379 0
M  V30 2 C  -40.7384 36.9598 -0.9742 0
M  V30 3 N  -41.3415 35.9200 -1.8036 0
M  V30 4 C  -40.8211 35.9944 -3.1702 0
M  V30 5 C  -39.6657 37.0019 -3.1371 0 CFG=1
M  V30 6 N  -39.5515 37.7279 -4.4018 0
M  V30 7 C  -38.6643 38.6942 -4.6921 0
M  V30 8 C  -38.6988 39.3182 -6.0998 0 CFG=2
M  V30 9 C  -38.5927 40.8590 -6.0623 0
M  V30 10 C  -39.5537 41.3696 -7.1452 0
M  V30 11 C  -40.4583 40.1728 -7.3793 0
M  V30 12 N  -39.9508 39.0839 -6.8084 0
M  V30 13 O  -41.5117 40.2213 -8.0101 0
M  V30 14 O  -37.8256 39.0844 -3.8836 0
M  V30 15 C  -42.2150 35.0061 -1.3213 0
M  V30 16 C  -42.8223 34.0733 -2.3140 0
M  V30 17 C  -42.8163 32.6935 -2.2529 0
M  V30 18 C  -42.2640 31.6507 -1.3270 0
M  V30 19 O  -41.9546 30.4482 -2.0705 0
M  V30 20 C  -42.7846 30.0428 -3.1061 0
M  V30 21 C  -42.7505 28.7093 -3.5553 0
M  V30 22 C  -43.5526 28.2853 -4.6293 0
M  V30 23 C  -44.4503 29.1874 -5.2264 0
M  V30 24 C  -44.4864 30.5293 -4.8079 0
M  V30 25 C  -43.6219 30.9537 -3.7796 0
M  V30 26 N  -43.4982 32.2769 -3.3634 0
M  V30 27 C  -43.8858 33.3452 -4.0497 0
M  V30 28 N  -43.5325 34.4774 -3.4594 0
M  V30 29 O  -42.4863 34.9200 -0.1249 0
M  V30 30 H  -39.1159 38.3416 -1.4863 0
M  V30 31 H  -40.6669 38.6957 -2.2438 0
M  V30 32 H  -40.0388 36.4936 -0.2773 0
M  V30 33 H  -41.4861 37.5025 -0.3924 0
M  V30 34 H  -41.6255 36.3456 -3.8165 0
M  V30 35 H  -40.4883 35.0219 -3.5392 0
M  V30 36 H  -38.7477 36.4549 -2.9358 0
M  V30 37 H  -40.2382 37.4846 -5.1073 0
M  V30 38 H  -37.8788 38.9040 -6.6883 0
M  V30 39 H  -37.5693 41.1912 -6.2415 0
M  V30 40 H  -38.8985 41.2613 -5.0935 0
M  V30 41 H  -39.0247 41.6092 -8.0684 0
M  V30 42 H  -40.1176 42.2461 -6.8205 0
M  V30 43 H  -40.4475 38.1986 -6.7828 0
M  V30 44 H  -41.3604 32.0129 -0.8375 0
M  V30 45 H  -42.9880 31.4207 -0.5445 0
M  V30 46 H  -42.0820 28.0102 -3.0775 0
M  V30 47 H  -43.5208 27.2578 -4.9635 0
M  V30 48 H  -45.1025 28.8514 -6.0161 0
M  V30 49 H  -45.1561 31.2185 -5.2954 0
M  V30 50 H  -44.3513 33.3048 -5.0182 0
M  V30 END ATOM
M  V30 BEGIN BOND
M  V30 1 1 1 2
M  V30 2 1 1 5
M  V30 3 1 1 30
M  V30 4 1 1 31
M  V30 5 1 2 3
M  V30 6 1 2 32
M  V30 7 1 2 33
M  V30 8 1 3 4
M  V30 9 1 3 15
M  V30 10 1 4 5
M  V30 11 1 4 34
M  V30 12 1 4 35
M  V30 13 1 5 6
M  V30 14 1 5 36
M  V30 15 1 6 7
M  V30 16 1 6 37
M  V30 17 1 7 8
M  V30 18 2 7 14
M  V30 19 1 8 9
M  V30 20 1 8 12
M  V30 21 1 8 38
M  V30 22 1 9 10
M  V30 23 1 9 39
M  V30 24 1 9 40
M  V30 25 1 10 11
M  V30 26 1 10 41
M  V30 27 1 10 42
M  V30 28 1 11 12
M  V30 29 2 11 13
M  V30 30 1 12 43
M  V30 31 1 15 16
M  V30 32 2 15 29
M  V30 33 2 16 17
M  V30 34 1 16 28
M  V30 35 1 17 18
M  V30 36 1 17 26
M  V30 37 1 18 19
M  V30 38 1 18 44
M  V30 39 1 18 45
M  V30 40 1 19 20
M  V30 41 2 20 21
M  V30 42 1 20 25
M  V30 43 1 21 22
M  V30 44 1 21 46
M  V30 45 2 22 23
M  V30 46 1 22 47
M  V30 47 1 23 24
M  V30 48 1 23 48
M  V30 49 2 24 25
M  V30 50 1 24 49
M  V30 51 1 25 26
M  V30 52 1 26 27
M  V30 53 2 27 28
M  V30 54 1 27 50
M  V30 END BOND
M  V30 END CTAB
M  END
> <s_m_entry_id>
254

> <i_f3d_flags>
0

> <r_lp_tautomer_probability>
1

> <r_epik_Ionization_Penalty>
  0.0000

> <r_epik_State_Penalty>
  0.0000

> <i_epik_Tot_Q>
0

> <r_i_docking_score>
-5.74552680659657

> <r_i_glide_gscore>
-5.74552680659657

> <r_i_glide_emodel>
-57.7660841289959

> <s_m_subgroup_title>
nsp13-core1_lib_top-500_pv

> <s_m_subgroupid>
nsp13-core1_lib_top-500_pv

> <b_m_subgroup_collapsed>
0

$$$$
Core_1_EN300-25447_EN300-25447
                    3D
 Schrodinger Suite 2023-1.
  0  0  0     0  0            999 V3000
M  V30 BEGIN CTAB
M  V30 COUNTS 62 65 0 0 0
M  V30 BEGIN ATOM
M  V30 1 C  -46.2546 32.2172 3.3767 0
M  V30 2 C  -46.4919 31.2898 2.2309 0
M  V30 3 C  -47.7962 31.0909 1.5355 0
M  V30 4 C  -47.4881 29.9689 0.5234 0
M  V30 5 C  -45.9562 29.7829 0.5612 0 CFG=1
M  V30 6 C  -45.1915 30.2838 -0.6661 0
M  V30 7 N  -43.9141 29.8837 -0.7299 0
M  V30 8 C  -42.8528 30.4115 -1.5719 0 CFG=1
M  V30 9 C  -43.1093 30.2603 -3.0702 0
M  V30 10 C  -42.5702 31.5481 -3.6755 0
M  V30 11 N  -42.5052 32.5424 -2.6080 0
M  V30 12 C  -42.5907 31.9044 -1.3027 0
M  V30 13 C  -42.3997 33.8641 -2.8569 0
M  V30 14 C  -42.2774 34.8826 -1.7097 0
M  V30 15 C  -40.8553 35.4677 -1.5367 0
M  V30 16 C  -40.4772 36.6064 -2.4931 0
M  V30 17 C  -39.6012 36.3904 -3.6012 0
M  V30 18 C  -39.0710 35.0181 -3.9520 0
M  V30 19 N  -39.1514 37.3432 -4.4102 0
M  V30 20 C  -39.5781 38.5968 -4.1983 0
M  V30 21 C  -39.3411 39.8109 -4.8130 0
M  V30 22 C  -38.4704 39.9806 -6.0104 0
M  V30 23 N  -37.9514 41.2000 -6.1389 0
M  V30 24 O  -38.2133 39.0838 -6.8103 0
M  V30 25 N  -40.0406 40.8249 -4.1613 0
M  V30 26 C  -40.7047 40.2383 -3.1635 0
M  V30 27 N  -40.4615 38.8891 -3.1350 0
M  V30 28 C  -40.9112 37.9095 -2.2889 0
M  V30 29 C  -41.8422 38.3391 -1.1614 0
M  V30 30 O  -42.4090 34.2838 -4.0096 0
M  V30 31 O  -45.7126 31.0480 -1.4793 0
M  V30 32 N  -45.5514 30.5884 1.7070 0 CHG=1
M  V30 33 H  -46.8947 31.9466 4.2167 0
M  V30 34 H  -45.2151 32.1743 3.7058 0
M  V30 35 H  -46.4819 33.2419 3.0821 0
M  V30 36 H  -48.0915 32.0153 1.0379 0
M  V30 37 H  -48.5737 30.8038 2.2440 0
M  V30 38 H  -47.8809 30.2029 -0.4670 0
M  V30 39 H  -47.9733 29.0446 0.8397 0
M  V30 40 H  -45.6894 28.7486 0.7850 0
M  V30 41 H  -43.6014 29.2199 -0.0355 0
M  V30 42 H  -41.9514 29.8553 -1.3233 0
M  V30 43 H  -44.1694 30.1714 -3.3034 0
M  V30 44 H  -42.6190 29.3767 -3.4813 0
M  V30 45 H  -43.1694 31.8687 -4.5295 0
M  V30 46 H  -41.5514 31.3817 -4.0103 0
M  V30 47 H  -41.6604 32.0409 -0.7486 0
M  V30 48 H  -43.3895 32.3625 -0.7186 0
M  V30 49 H  -42.5749 34.4281 -0.7672 0
M  V30 50 H  -42.9986 35.6822 -1.8790 0
M  V30 51 H  -40.1188 34.6686 -1.5898 0
M  V30 52 H  -40.7472 35.8399 -0.5179 0
M  V30 53 H  -39.8658 34.2816 -4.0103 0
M  V30 54 H  -38.5626 35.0469 -4.9155 0
M  V30 55 H  -38.3514 34.6838 -3.2102 0
M  V30 56 H  -38.1911 41.9089 -5.4614 0
M  V30 57 H  -37.3080 41.3798 -6.8986 0
M  V30 58 H  -41.3417 40.7676 -2.4706 0
M  V30 59 H  -42.2426 37.5079 -0.5855 0
M  V30 60 H  -41.3123 38.9950 -0.4702 0
M  V30 61 H  -42.6941 38.8865 -1.5658 0
M  V30 62 H  -44.5294 30.6838 1.9897 0
M  V30 END ATOM
M  V30 BEGIN BOND
M  V30 1 1 1 2
M  V30 2 1 1 33
M  V30 3 1 1 34
M  V30 4 1 1 35
M  V30 5 1 2 3
M  V30 6 2 2 32
M  V30 7 1 3 4
M  V30 8 1 3 36
M  V30 9 1 3 37
M  V30 10 1 4 5
M  V30 11 1 4 38
M  V30 12 1 4 39
M  V30 13 1 5 6
M  V30 14 1 5 32
M  V30 15 1 5 40
M  V30 16 1 6 7
M  V30 17 2 6 31
M  V30 18 1 7 8
M  V30 19 1 7 41
M  V30 20 1 8 9
M  V30 21 1 8 12
M  V30 22 1 8 42
M  V30 23 1 9 10
M  V30 24 1 9 43
M  V30 25 1 9 44
M  V30 26 1 10 11
M  V30 27 1 10 45
M  V30 28 1 10 46
M  V30 29 1 11 12
M  V30 30 1 11 13
M  V30 31 1 12 47
M  V30 32 1 12 48
M  V30 33 1 13 14
M  V30 34 2 13 30
M  V30 35 1 14 15
M  V30 36 1 14 49
M  V30 37 1 14 50
M  V30 38 1 15 16
M  V30 39 1 15 51
M  V30 40 1 15 52
M  V30 41 1 16 17
M  V30 42 2 16 28
M  V30 43 1 17 18
M  V30 44 2 17 19
M  V30 45 1 18 53
M  V30 46 1 18 54
M  V30 47 1 18 55
M  V30 48 1 19 20
M  V30 49 2 20 21
M  V30 50 1 20 27
M  V30 51 1 21 22
M  V30 52 1 21 25
M  V30 53 1 22 23
M  V30 54 2 22 24
M  V30 55 1 23 56
M  V30 56 1 23 57
M  V30 57 2 25 26
M  V30 58 1 26 27
M  V30 59 1 26 58
M  V30 60 1 27 28
M  V30 61 1 28 29
M  V30 62 1 29 59
M  V30 63 1 29 60
M  V30 64 1 29 61
M  V30 65 1 32 62
M  V30 END BOND
M  V30 END CTAB
M  END
> <s_m_entry_id>
257

> <i_f3d_flags>
0

> <r_epik_Ionization_Penalty>
  0.7489

> <r_epik_State_Penalty>
  0.7388

> <i_epik_Tot_Q>
1

> <r_i_docking_score>
-5.74357348858864

> <r_i_glide_gscore>
-6.48237348858864

> <r_i_glide_emodel>
-65.5103547861542

> <s_m_subgroup_title>
nsp13-core1_lib_top-500_pv

> <s_m_subgroupid>
nsp13-core1_lib_top-500_pv

> <b_m_subgroup_collapsed>
0

$$$$
Core_1_EN300-26790_EN300-26790
                    3D
 Schrodinger Suite 2023-1.
  0  0  0     0  0            999 V3000
M  V30 BEGIN CTAB
M  V30 COUNTS 47 49 0 0 0
M  V30 BEGIN ATOM
M  V30 1 C  -39.2064 28.7013 5.7177 0
M  V30 2 S  -38.1114 28.9781 4.2777 0
M  V30 3 N  -38.7515 30.4153 3.5894 0 CFG=2
M  V30 4 C  -38.5722 31.6980 4.2717 0
M  V30 5 C  -39.0593 32.9058 3.4811 0
M  V30 6 N  -40.0520 32.6842 2.6068 0
M  V30 7 C  -40.7976 33.7182 1.8997 0 CFG=1
M  V30 8 C  -39.9624 34.5022 0.8858 0
M  V30 9 C  -40.9435 34.8541 -0.2353 0
M  V30 10 N  -42.0531 33.9077 -0.1273 0
M  V30 11 C  -41.9287 33.0975 1.0798 0
M  V30 12 C  -43.0430 33.8400 -1.0402 0
M  V30 13 C  -44.1596 32.7931 -0.8885 0
M  V30 14 C  -43.9858 31.7243 -1.9175 0
M  V30 15 C  -43.1295 30.6571 -1.9008 0
M  V30 16 N  -43.3348 29.9761 -3.0868 0
M  V30 17 C  -42.7502 28.8595 -3.5948 0
M  V30 18 C  -43.1616 28.3818 -4.8119 0
M  V30 19 C  -44.1789 29.0383 -5.5378 0
M  V30 20 C  -44.7675 30.1706 -5.0384 0
M  V30 21 C  -44.3508 30.6800 -3.7810 0
M  V30 22 N  -44.7514 31.7306 -3.0760 0
M  V30 23 O  -43.0769 34.6046 -2.0106 0
M  V30 24 O  -38.5767 34.0187 3.6897 0
M  V30 25 O  -36.7548 29.2777 4.7613 0
M  V30 26 O  -38.3254 27.8869 3.3185 0
M  V30 27 H  -38.9250 27.7738 6.2160 0
M  V30 28 H  -40.2340 28.6215 5.3700 0
M  V30 29 H  -39.1221 29.5357 6.4126 0
M  V30 30 H  -39.7063 30.2837 3.1897 0
M  V30 31 H  -39.0986 31.6777 5.2259 0
M  V30 32 H  -37.5148 31.8358 4.4956 0
M  V30 33 H  -40.4039 31.7333 2.5231 0
M  V30 34 H  -41.2391 34.4146 2.6139 0
M  V30 35 H  -39.5005 35.3848 1.3285 0
M  V30 36 H  -39.1583 33.8847 0.4885 0
M  V30 37 H  -41.3256 35.8687 -0.1026 0
M  V30 38 H  -40.4515 34.8007 -1.2105 0
M  V30 39 H  -41.6959 32.0728 0.7848 0
M  V30 40 H  -42.8475 33.0837 1.6672 0
M  V30 41 H  -44.1912 32.3422 0.1016 0
M  V30 42 H  -45.1160 33.3001 -1.0154 0
M  V30 43 H  -42.4054 30.3136 -1.1760 0
M  V30 44 H  -41.9769 28.3907 -2.9919 0
M  V30 45 H  -42.7039 27.4856 -5.2109 0
M  V30 46 H  -44.4937 28.6540 -6.4983 0
M  V30 47 H  -45.5443 30.6720 -5.6124 0
M  V30 END ATOM
M  V30 BEGIN BOND
M  V30 1 1 1 2
M  V30 2 1 1 27
M  V30 3 1 1 28
M  V30 4 1 1 29
M  V30 5 1 2 3
M  V30 6 2 2 25
M  V30 7 2 2 26
M  V30 8 1 3 4
M  V30 9 1 3 30
M  V30 10 1 4 5
M  V30 11 1 4 31
M  V30 12 1 4 32
M  V30 13 1 5 6
M  V30 14 2 5 24
M  V30 15 1 6 7
M  V30 16 1 6 33
M  V30 17 1 7 8
M  V30 18 1 7 11
M  V30 19 1 7 34
M  V30 20 1 8 9
M  V30 21 1 8 35
M  V30 22 1 8 36
M  V30 23 1 9 10
M  V30 24 1 9 37
M  V30 25 1 9 38
M  V30 26 1 10 11
M  V30 27 1 10 12
M  V30 28 1 11 39
M  V30 29 1 11 40
M  V30 30 1 12 13
M  V30 31 2 12 23
M  V30 32 1 13 14
M  V30 33 1 13 41
M  V30 34 1 13 42
M  V30 35 2 14 15
M  V30 36 1 14 22
M  V30 37 1 15 16
M  V30 38 1 15 43
M  V30 39 1 16 17
M  V30 40 1 16 21
M  V30 41 2 17 18
M  V30 42 1 17 44
M  V30 43 1 18 19
M  V30 44 1 18 45
M  V30 45 2 19 20
M  V30 46 1 19 46
M  V30 47 1 20 21
M  V30 48 1 20 47
M  V30 49 2 21 22
M  V30 END BOND
M  V30 END CTAB
M  END
> <s_m_entry_id>
260

> <i_f3d_flags>
0

> <r_epik_Ionization_Penalty>
  0.1049

> <r_epik_State_Penalty>
  0.1049

> <i_epik_Tot_Q>
0

> <r_i_docking_score>
-5.74228943732865

> <r_i_glide_gscore>
-5.84718943732865

> <r_i_glide_emodel>
-61.7468079625522

> <s_m_subgroup_title>
nsp13-core1_lib_top-500_pv

> <s_m_subgroupid>
nsp13-core1_lib_top-500_pv

> <b_m_subgroup_collapsed>
0

$$$$
Core_1_EN300-59195_EN300-59195
                    3D
 Schrodinger Suite 2023-1.
  0  0  0     0  0            999 V3000
M  V30 BEGIN CTAB
M  V30 COUNTS 39 41 0 0 0
M  V30 BEGIN ATOM
M  V30 1 C  -42.9694 36.5130 -2.8713 0
M  V30 2 C  -43.8207 35.2866 -2.5598 0
M  V30 3 N  -42.9759 34.1279 -2.8401 0
M  V30 4 C  -41.5887 34.5397 -3.0696 0
M  V30 5 C  -41.5289 36.0322 -2.7208 0 CFG=1
M  V30 6 N  -40.6382 36.7746 -3.6083 0
M  V30 7 C  -39.5768 37.4937 -3.2142 0
M  V30 8 C  -38.9648 38.3607 -4.2403 0
M  V30 9 C  -38.1377 39.4126 -3.9807 0
M  V30 10 C  -37.8848 39.9189 -5.2852 0
M  V30 11 N  -38.4668 39.2334 -6.2640 0
M  V30 12 N  -39.1505 38.2753 -5.6019 0
M  V30 13 O  -37.1521 41.0147 -5.6103 0
M  V30 14 O  -39.1532 37.4956 -2.0576 0
M  V30 15 C  -43.4498 32.8650 -2.8345 0
M  V30 16 C  -42.4848 31.7077 -3.1606 0
M  V30 17 N  -43.1236 30.5802 -3.8272 0
M  V30 18 C  -44.1007 30.6380 -4.8104 0
M  V30 19 C  -44.3882 29.3661 -5.2106 0
M  V30 20 C  -43.5511 28.4903 -4.4727 0
M  V30 21 C  -42.7893 29.2505 -3.6293 0
M  V30 22 O  -44.6351 32.6186 -2.5963 0
M  V30 23 H  -43.1648 36.8260 -3.8997 0
M  V30 24 H  -43.2002 37.3590 -2.2214 0
M  V30 25 H  -44.7386 35.2779 -3.1483 0
M  V30 26 H  -44.0976 35.2707 -1.5034 0
M  V30 27 H  -40.8881 33.9709 -2.4577 0
M  V30 28 H  -41.3355 34.3707 -4.1187 0
M  V30 29 H  -41.2402 36.1318 -1.6718 0
M  V30 30 H  -40.9537 36.8785 -4.5701 0
M  V30 31 H  -37.7890 39.7759 -3.0249 0
M  V30 32 H  -36.9676 41.0388 -6.5406 0
M  V30 33 H  -39.7611 37.6150 -6.0701 0
M  V30 34 H  -42.0309 31.3608 -2.2304 0
M  V30 35 H  -41.6758 32.0419 -3.8087 0
M  V30 36 H  -44.5040 31.5819 -5.1472 0
M  V30 37 H  -45.1042 29.0958 -5.9726 0
M  V30 38 H  -43.5114 27.4162 -4.5520 0
M  V30 39 H  -42.0351 28.9612 -2.9105 0
M  V30 END ATOM
M  V30 BEGIN BOND
M  V30 1 1 1 2
M  V30 2 1 1 5
M  V30 3 1 1 23
M  V30 4 1 1 24
M  V30 5 1 2 3
M  V30 6 1 2 25
M  V30 7 1 2 26
M  V30 8 1 3 4
M  V30 9 1 3 15
M  V30 10 1 4 5
M  V30 11 1 4 27
M  V30 12 1 4 28
M  V30 13 1 5 6
M  V30 14 1 5 29
M  V30 15 1 6 7
M  V30 16 1 6 30
M  V30 17 2 7 14
M  V30 18 1 7 8
M  V30 19 2 8 9
M  V30 20 1 8 12
M  V30 21 1 9 31
M  V30 22 1 9 10
M  V30 23 2 10 11
M  V30 24 1 10 13
M  V30 25 1 11 12
M  V30 26 1 12 33
M  V30 27 1 13 32
M  V30 28 1 15 16
M  V30 29 2 15 22
M  V30 30 1 16 17
M  V30 31 1 16 34
M  V30 32 1 16 35
M  V30 33 1 17 18
M  V30 34 1 17 21
M  V30 35 2 18 19
M  V30 36 1 18 36
M  V30 37 1 19 20
M  V30 38 1 19 37
M  V30 39 2 20 21
M  V30 40 1 20 38
M  V30 41 1 21 39
M  V30 END BOND
M  V30 END CTAB
M  END
> <s_m_entry_id>
263

> <i_f3d_flags>
0

> <r_lp_tautomer_probability>
0.966084542645576

> <r_epik_Ionization_Penalty>
  0.2459

> <r_epik_State_Penalty>
  0.3552

> <i_epik_Tot_Q>
0

> <r_i_docking_score>
-5.74186842446597

> <r_i_glide_gscore>
-6.09706842446597

> <r_i_glide_emodel>
-52.1970150627266

> <s_m_subgroup_title>
nsp13-core1_lib_top-500_pv

> <s_m_subgroupid>
nsp13-core1_lib_top-500_pv

> <b_m_subgroup_collapsed>
0

$$$$
Core_1_EN300-182610_EN300-182610
                    3D
 Schrodinger Suite 2023-1.
  0  0  0     0  0            999 V3000
M  V30 BEGIN CTAB
M  V30 COUNTS 45 47 0 0 0
M  V30 BEGIN ATOM
M  V30 1 C  -37.7594 38.9456 -5.3124 0
M  V30 2 C  -39.1906 38.7486 -4.7694 0 CFG=2
M  V30 3 C  -40.1237 39.9198 -5.1577 0
M  V30 4 S  -40.4574 39.8836 -6.9858 0 CFG=1
M  V30 5 C  -41.5216 41.3998 -7.0579 0
M  V30 6 O  -39.1505 40.2223 -7.7078 0
M  V30 7 C  -39.1352 38.5965 -3.2349 0
M  V30 8 N  -39.6931 37.5204 -2.6338 0
M  V30 9 C  -39.5079 37.2239 -1.2144 0
M  V30 10 C  -40.1771 35.8698 -0.9723 0
M  V30 11 C  -41.2357 35.7776 -2.0652 0 CFG=1
M  V30 12 C  -40.6272 36.5681 -3.2331 0
M  V30 13 N  -41.5603 34.3926 -2.4064 0
M  V30 14 C  -42.6369 34.0256 -3.1158 0
M  V30 15 C  -42.8224 32.5838 -3.3443 0
M  V30 16 C  -42.3514 31.4884 -2.6142 0
M  V30 17 C  -42.8567 30.4472 -3.3290 0
M  V30 18 C  -43.5596 30.8684 -4.3457 0
M  V30 19 C  -44.0562 29.7706 -5.0892 0
M  V30 20 C  -43.5498 28.6688 -4.4057 0
M  V30 21 N  -42.8101 29.0852 -3.2791 0
M  V30 22 O  -43.6189 32.2090 -4.4325 0
M  V30 23 O  -43.4225 34.8361 -3.6092 0
M  V30 24 O  -38.5190 39.4451 -2.5884 0
M  V30 25 H  -37.0532 38.2876 -4.8105 0
M  V30 26 H  -37.7003 38.7179 -6.3758 0
M  V30 27 H  -37.4091 39.9712 -5.1728 0
M  V30 28 H  -39.5672 37.8298 -5.2147 0
M  V30 29 H  -39.6737 40.8795 -4.8933 0
M  V30 30 H  -41.0780 39.8446 -4.6310 0
M  V30 31 H  -42.3870 41.2888 -6.4040 0
M  V30 32 H  -41.8761 41.5635 -8.0753 0
M  V30 33 H  -40.9575 42.2783 -6.7457 0
M  V30 34 H  -38.4530 37.1979 -0.9402 0
M  V30 35 H  -39.9900 38.0001 -0.6199 0
M  V30 36 H  -39.4295 35.0831 -1.0939 0
M  V30 37 H  -40.5953 35.7795 0.0322 0
M  V30 38 H  -42.1345 36.2899 -1.7174 0
M  V30 39 H  -41.4096 37.0841 -3.7871 0
M  V30 40 H  -40.0882 35.9140 -3.9195 0
M  V30 41 H  -40.9575 33.6689 -2.0455 0
M  V30 42 H  -41.7365 31.4692 -1.7270 0
M  V30 43 H  -44.6641 29.7656 -5.9828 0
M  V30 44 H  -43.6617 27.6139 -4.6103 0
M  V30 45 H  -42.3561 28.5048 -2.5815 0
M  V30 END ATOM
M  V30 BEGIN BOND
M  V30 1 1 1 2
M  V30 2 1 1 25
M  V30 3 1 1 26
M  V30 4 1 1 27
M  V30 5 1 2 3
M  V30 6 1 2 7
M  V30 7 1 2 28
M  V30 8 1 3 4
M  V30 9 1 3 29
M  V30 10 1 3 30
M  V30 11 1 4 5
M  V30 12 2 4 6
M  V30 13 1 5 31
M  V30 14 1 5 32
M  V30 15 1 5 33
M  V30 16 1 7 8
M  V30 17 2 7 24
M  V30 18 1 8 9
M  V30 19 1 8 12
M  V30 20 1 9 10
M  V30 21 1 9 34
M  V30 22 1 9 35
M  V30 23 1 10 11
M  V30 24 1 10 36
M  V30 25 1 10 37
M  V30 26 1 11 12
M  V30 27 1 11 13
M  V30 28 1 11 38
M  V30 29 1 12 39
M  V30 30 1 12 40
M  V30 31 1 13 14
M  V30 32 1 13 41
M  V30 33 1 14 15
M  V30 34 2 14 23
M  V30 35 2 15 16
M  V30 36 1 15 22
M  V30 37 1 16 17
M  V30 38 1 16 42
M  V30 39 2 17 18
M  V30 40 1 17 21
M  V30 41 1 18 19
M  V30 42 1 18 22
M  V30 43 2 19 20
M  V30 44 1 19 43
M  V30 45 1 20 21
M  V30 46 1 20 44
M  V30 47 1 21 45
M  V30 END BOND
M  V30 END CTAB
M  END
> <s_m_entry_id>
264

> <i_f3d_flags>
0

> <r_lp_tautomer_probability>
1

> <r_epik_Ionization_Penalty>
  0.0000

> <r_epik_State_Penalty>
  0.0000

> <i_epik_Tot_Q>
0

> <r_i_docking_score>
-5.74118359094945

> <r_i_glide_gscore>
-5.74118359094945

> <r_i_glide_emodel>
-53.4676033820504

> <s_m_subgroup_title>
nsp13-core1_lib_top-500_pv

> <s_m_subgroupid>
nsp13-core1_lib_top-500_pv

> <b_m_subgroup_collapsed>
0

$$$$
Core_1_EN300-7499382_EN300-7499382
                    3D
 Schrodinger Suite 2023-1.
  0  0  0     0  0            999 V3000
M  V30 BEGIN CTAB
M  V30 COUNTS 44 47 0 0 0
M  V30 BEGIN ATOM
M  V30 1 C  -41.1859 34.6627 -0.4128 0
M  V30 2 C  -40.4609 36.0035 -0.5030 0
M  V30 3 N  -40.3226 36.2949 -1.9271 0
M  V30 4 C  -41.1130 35.3566 -2.7260 0
M  V30 5 C  -41.9438 34.5359 -1.7304 0 CFG=1
M  V30 6 N  -42.1012 33.1421 -2.1313 0
M  V30 7 C  -42.8093 32.6999 -3.1844 0
M  V30 8 C  -42.9248 31.2328 -3.3369 0
M  V30 9 C  -43.2944 30.4558 -4.4778 0
M  V30 10 C  -43.2437 29.1325 -4.1376 0
M  V30 11 N  -42.8835 29.0857 -2.8107 0
M  V30 12 C  -42.7059 30.3550 -2.3068 0
M  V30 13 O  -43.3182 33.4608 -4.0076 0
M  V30 14 C  -39.5513 37.3026 -2.3936 0
M  V30 15 C  -39.4513 37.5300 -3.9098 0
M  V30 16 C  -39.3704 39.0195 -4.3091 0 CFG=1
M  V30 17 C  -39.1441 39.1952 -5.8136 0
M  V30 18 N  -40.0813 39.9537 -6.3978 0
M  V30 19 C  -40.2473 40.3568 -7.7672 0
M  V30 20 C  -41.5864 41.1130 -7.7051 0
M  V30 21 N  -42.0186 41.0763 -6.3191 0
M  V30 22 C  -41.1350 40.4126 -5.6586 0
M  V30 23 S  -40.9138 39.9033 -3.9480 0
M  V30 24 O  -38.1939 38.6840 -6.4086 0
M  V30 25 O  -38.9129 38.0375 -1.6378 0
M  V30 26 H  -40.4376 33.8758 -0.3245 0
M  V30 27 H  -41.8378 34.5966 0.4581 0
M  V30 28 H  -39.4924 35.9675 0.0010 0
M  V30 29 H  -41.0527 36.7927 -0.0392 0
M  V30 30 H  -41.7770 35.8673 -3.4274 0
M  V30 31 H  -40.4330 34.7230 -3.2999 0
M  V30 32 H  -42.9259 35.0001 -1.6161 0
M  V30 33 H  -41.7007 32.4460 -1.5202 0
M  V30 34 H  -43.5513 30.8331 -5.4556 0
M  V30 35 H  -43.4239 28.2332 -4.7056 0
M  V30 36 H  -42.7502 28.2452 -2.2519 0
M  V30 37 H  -42.4298 30.4985 -1.2699 0
M  V30 38 H  -40.3046 37.0864 -4.4103 0
M  V30 39 H  -38.5744 36.9931 -4.2706 0
M  V30 40 H  -38.5479 39.5153 -3.7918 0
M  V30 41 H  -40.3078 39.4841 -8.4107 0
M  V30 42 H  -39.4237 40.9942 -8.0931 0
M  V30 43 H  -42.3322 40.6382 -8.3436 0
M  V30 44 H  -41.4720 42.1441 -8.0407 0
M  V30 END ATOM
M  V30 BEGIN BOND
M  V30 1 1 1 2
M  V30 2 1 1 5
M  V30 3 1 1 26
M  V30 4 1 1 27
M  V30 5 1 2 3
M  V30 6 1 2 28
M  V30 7 1 2 29
M  V30 8 1 3 4
M  V30 9 1 3 14
M  V30 10 1 4 5
M  V30 11 1 4 30
M  V30 12 1 4 31
M  V30 13 1 5 6
M  V30 14 1 5 32
M  V30 15 1 6 7
M  V30 16 1 6 33
M  V30 17 1 7 8
M  V30 18 2 7 13
M  V30 19 1 8 9
M  V30 20 2 8 12
M  V30 21 2 9 10
M  V30 22 1 9 34
M  V30 23 1 10 11
M  V30 24 1 10 35
M  V30 25 1 11 12
M  V30 26 1 11 36
M  V30 27 1 12 37
M  V30 28 1 14 15
M  V30 29 2 14 25
M  V30 30 1 15 16
M  V30 31 1 15 38
M  V30 32 1 15 39
M  V30 33 1 16 17
M  V30 34 1 16 23
M  V30 35 1 16 40
M  V30 36 1 17 18
M  V30 37 2 17 24
M  V30 38 1 18 19
M  V30 39 1 18 22
M  V30 40 1 19 20
M  V30 41 1 19 41
M  V30 42 1 19 42
M  V30 43 1 20 21
M  V30 44 1 20 43
M  V30 45 1 20 44
M  V30 46 2 21 22
M  V30 47 1 22 23
M  V30 END BOND
M  V30 END CTAB
M  END
> <s_m_entry_id>
265

> <i_f3d_flags>
0

> <r_lp_tautomer_probability>
1

> <r_epik_Ionization_Penalty>
  0.0422

> <r_epik_State_Penalty>
  0.0422

> <i_epik_Tot_Q>
0

> <r_i_docking_score>
-5.74117353347855

> <r_i_glide_gscore>
-5.78337353347855

> <r_i_glide_emodel>
-54.4872523211943

> <s_m_subgroup_title>
nsp13-core1_lib_top-500_pv

> <s_m_subgroupid>
nsp13-core1_lib_top-500_pv

> <b_m_subgroup_collapsed>
0

$$$$
Core_1_EN300-91712_EN300-91712
                    3D
 Schrodinger Suite 2023-1.
  0  0  0     0  0            999 V3000
M  V30 BEGIN CTAB
M  V30 COUNTS 44 46 0 0 0
M  V30 BEGIN ATOM
M  V30 1 C  -37.7442 40.1954 -3.0182 0
M  V30 2 N  -38.0043 39.4671 -4.2435 0
M  V30 3 C  -37.5527 39.7202 -5.4789 0
M  V30 4 N  -37.9528 38.8583 -6.4102 0
M  V30 5 N  -38.7513 37.9611 -5.7309 0
M  V30 6 C  -38.7514 38.3648 -4.4531 0
M  V30 7 S  -39.6289 37.5887 -3.1304 0
M  V30 8 C  -39.7294 35.8724 -3.7360 0
M  V30 9 C  -40.7900 35.0633 -2.9852 0
M  V30 10 N  -40.7279 35.0711 -1.6416 0
M  V30 11 C  -41.7163 34.5275 -0.7020 0 CFG=1
M  V30 12 C  -43.0667 35.2490 -0.7763 0
M  V30 13 C  -44.1185 34.1726 -0.5222 0
M  V30 14 N  -43.4809 32.8907 -0.8081 0
M  V30 15 C  -42.0258 33.0286 -0.8835 0
M  V30 16 C  -44.1885 31.7642 -1.0432 0
M  V30 17 C  -43.4511 30.4482 -1.3284 0
M  V30 18 C  -43.5402 30.0485 -2.7729 0
M  V30 19 C  -44.1669 30.5801 -3.8728 0
M  V30 20 C  -43.9438 29.7127 -4.9819 0
M  V30 21 C  -43.1509 28.6883 -4.5507 0
M  V30 22 N  -42.9069 28.9060 -3.2111 0
M  V30 23 O  -45.4216 31.7562 -1.0641 0
M  V30 24 O  -41.6645 34.4650 -3.6111 0
M  V30 25 H  -37.2483 39.5411 -2.3007 0
M  V30 26 H  -37.0985 41.0500 -3.2189 0
M  V30 27 H  -38.6832 40.5510 -2.5930 0
M  V30 28 H  -36.9034 40.5530 -5.7049 0
M  V30 29 H  -39.9815 35.8630 -4.7957 0
M  V30 30 H  -38.7532 35.3941 -3.6340 0
M  V30 31 H  -39.9687 35.5961 -1.2318 0
M  V30 32 H  -41.3175 34.6649 0.3044 0
M  V30 33 H  -43.1371 36.0701 -0.0616 0
M  V30 34 H  -43.2377 35.6729 -1.7661 0
M  V30 35 H  -44.4299 34.1787 0.5231 0
M  V30 36 H  -45.0043 34.3434 -1.1367 0
M  V30 37 H  -41.6629 32.6319 -1.8318 0
M  V30 38 H  -41.5527 32.4498 -0.0892 0
M  V30 39 H  -42.4102 30.4811 -1.0095 0
M  V30 40 H  -43.9117 29.6739 -0.7138 0
M  V30 41 H  -44.7418 31.4934 -3.8831 0
M  V30 42 H  -44.3124 29.8308 -5.9932 0
M  V30 43 H  -42.7442 27.8337 -5.0683 0
M  V30 44 H  -42.3680 28.2915 -2.6084 0
M  V30 END ATOM
M  V30 BEGIN BOND
M  V30 1 1 1 2
M  V30 2 1 1 25
M  V30 3 1 1 26
M  V30 4 1 1 27
M  V30 5 1 2 3
M  V30 6 1 2 6
M  V30 7 2 3 4
M  V30 8 1 3 28
M  V30 9 1 4 5
M  V30 10 2 5 6
M  V30 11 1 6 7
M  V30 12 1 7 8
M  V30 13 1 8 9
M  V30 14 1 8 29
M  V30 15 1 8 30
M  V30 16 1 9 10
M  V30 17 2 9 24
M  V30 18 1 10 11
M  V30 19 1 10 31
M  V30 20 1 11 12
M  V30 21 1 11 15
M  V30 22 1 11 32
M  V30 23 1 12 13
M  V30 24 1 12 33
M  V30 25 1 12 34
M  V30 26 1 13 14
M  V30 27 1 13 35
M  V30 28 1 13 36
M  V30 29 1 14 15
M  V30 30 1 14 16
M  V30 31 1 15 37
M  V30 32 1 15 38
M  V30 33 1 16 17
M  V30 34 2 16 23
M  V30 35 1 17 18
M  V30 36 1 17 39
M  V30 37 1 17 40
M  V30 38 2 18 19
M  V30 39 1 18 22
M  V30 40 1 19 20
M  V30 41 1 19 41
M  V30 42 2 20 21
M  V30 43 1 20 42
M  V30 44 1 21 22
M  V30 45 1 21 43
M  V30 46 1 22 44
M  V30 END BOND
M  V30 END CTAB
M  END
> <s_m_entry_id>
268

> <i_f3d_flags>
0

> <r_lp_tautomer_probability>
1

> <r_epik_Ionization_Penalty>
  0.0000

> <r_epik_State_Penalty>
  0.0000

> <i_epik_Tot_Q>
0

> <r_i_docking_score>
-5.73951664801922

> <r_i_glide_gscore>
-5.73951664801922

> <r_i_glide_emodel>
-53.1669906246971

> <s_m_subgroup_title>
nsp13-core1_lib_top-500_pv

> <s_m_subgroupid>
nsp13-core1_lib_top-500_pv

> <b_m_subgroup_collapsed>
0

$$$$
Core_1_EN300-1081114_EN300-1081114
                    3D
 Schrodinger Suite 2023-1.
  0  0  0     0  0            999 V3000
M  V30 BEGIN CTAB
M  V30 COUNTS 50 54 0 0 0
M  V30 BEGIN ATOM
M  V30 1 C  -38.5375 40.3785 -2.5334 0
M  V30 2 C  -37.2727 40.0560 -3.3998 0
M  V30 3 C  -37.8845 39.6943 -4.7076 0
M  V30 4 C  -37.5514 39.2422 -6.0104 0
M  V30 5 N  -38.6468 39.0938 -6.7617 0
M  V30 6 N  -39.6834 39.4419 -5.9563 0
M  V30 7 C  -39.2147 39.8016 -4.7194 0
M  V30 8 C  -39.8038 40.2539 -3.4486 0 CFG=1
M  V30 9 C  -40.9217 39.3619 -2.8718 0
M  V30 10 N  -40.7858 38.0192 -2.7423 0
M  V30 11 C  -39.6802 37.1588 -3.1826 0
M  V30 12 C  -40.0762 35.7200 -2.8321 0
M  V30 13 C  -41.1013 35.8880 -1.7142 0 CFG=1
M  V30 14 C  -41.7775 37.2275 -2.0195 0
M  V30 15 N  -42.0410 34.7799 -1.5349 0
M  V30 16 C  -42.9486 34.3035 -2.4047 0
M  V30 17 C  -43.9043 33.2411 -1.8559 0
M  V30 18 C  -43.6662 31.9084 -2.5389 0
M  V30 19 C  -42.5906 31.0882 -2.1294 0
M  V30 20 C  -42.3570 29.8763 -2.8055 0
M  V30 21 C  -43.1946 29.5148 -3.8778 0
M  V30 22 C  -43.2802 28.4276 -4.8070 0
M  V30 23 C  -44.3558 28.6830 -5.6102 0
M  V30 24 N  -44.9492 29.8686 -5.2104 0
M  V30 25 C  -44.2511 30.4189 -4.1616 0
M  V30 26 N  -44.5343 31.5894 -3.5287 0
M  V30 27 O  -43.0523 34.6839 -3.5723 0
M  V30 28 O  -41.9435 39.9330 -2.4887 0
M  V30 29 H  -38.4672 41.3834 -2.1130 0
M  V30 30 H  -38.5885 39.6958 -1.6831 0
M  V30 31 H  -36.6200 40.9262 -3.4829 0
M  V30 32 H  -36.6894 39.2412 -2.9682 0
M  V30 33 H  -36.5791 39.0246 -6.4285 0
M  V30 34 H  -40.6521 39.3671 -6.2428 0
M  V30 35 H  -40.2189 41.2504 -3.6101 0
M  V30 36 H  -38.7659 37.4375 -2.6582 0
M  V30 37 H  -39.4970 37.2294 -4.2539 0
M  V30 38 H  -39.2208 35.1118 -2.5374 0
M  V30 39 H  -40.5220 35.2568 -3.7111 0
M  V30 40 H  -40.5515 35.9986 -0.7791 0
M  V30 41 H  -42.6478 37.1149 -2.6656 0
M  V30 42 H  -42.1052 37.7136 -1.0988 0
M  V30 43 H  -42.0426 34.3681 -0.6131 0
M  V30 44 H  -44.9317 33.5713 -2.0087 0
M  V30 45 H  -43.7748 33.1208 -0.7791 0
M  V30 46 H  -41.9482 31.3847 -1.3114 0
M  V30 47 H  -41.5522 29.2199 -2.5099 0
M  V30 48 H  -42.6187 27.5783 -4.8574 0
M  V30 49 H  -44.7441 28.1035 -6.4297 0
M  V30 50 H  -45.7416 30.2868 -5.6820 0
M  V30 END ATOM
M  V30 BEGIN BOND
M  V30 1 1 1 2
M  V30 2 1 1 8
M  V30 3 1 1 29
M  V30 4 1 1 30
M  V30 5 1 2 3
M  V30 6 1 2 31
M  V30 7 1 2 32
M  V30 8 1 3 4
M  V30 9 2 3 7
M  V30 10 2 4 5
M  V30 11 1 4 33
M  V30 12 1 5 6
M  V30 13 1 6 7
M  V30 14 1 6 34
M  V30 15 1 7 8
M  V30 16 1 8 9
M  V30 17 1 8 35
M  V30 18 1 9 10
M  V30 19 2 9 28
M  V30 20 1 10 11
M  V30 21 1 10 14
M  V30 22 1 11 12
M  V30 23 1 11 36
M  V30 24 1 11 37
M  V30 25 1 12 13
M  V30 26 1 12 38
M  V30 27 1 12 39
M  V30 28 1 13 14
M  V30 29 1 13 15
M  V30 30 1 13 40
M  V30 31 1 14 41
M  V30 32 1 14 42
M  V30 33 1 15 16
M  V30 34 1 15 43
M  V30 35 1 16 17
M  V30 36 2 16 27
M  V30 37 1 17 18
M  V30 38 1 17 44
M  V30 39 1 17 45
M  V30 40 2 18 19
M  V30 41 1 18 26
M  V30 42 1 19 20
M  V30 43 1 19 46
M  V30 44 2 20 21
M  V30 45 1 20 47
M  V30 46 1 21 22
M  V30 47 1 21 25
M  V30 48 2 22 23
M  V30 49 1 22 48
M  V30 50 1 23 24
M  V30 51 1 23 49
M  V30 52 1 24 25
M  V30 53 1 24 50
M  V30 54 2 25 26
M  V30 END BOND
M  V30 END CTAB
M  END
> <s_m_entry_id>
272

> <i_f3d_flags>
0

> <r_lp_tautomer_probability>
0.499999216264228

> <r_epik_Ionization_Penalty>
  0.0016

> <r_epik_State_Penalty>
  0.4120

> <i_epik_Tot_Q>
0

> <r_i_docking_score>
-5.73511111243279

> <r_i_glide_gscore>
-6.14711111243279

> <r_i_glide_emodel>
-57.0880066198887

> <s_m_subgroup_title>
nsp13-core1_lib_top-500_pv

> <s_m_subgroupid>
nsp13-core1_lib_top-500_pv

> <b_m_subgroup_collapsed>
0

$$$$
Core_1_EN300-92658_EN300-92658
                    3D
 Schrodinger Suite 2023-1.
  0  0  0     0  0            999 V3000
M  V30 BEGIN CTAB
M  V30 COUNTS 49 52 0 0 0
M  V30 BEGIN ATOM
M  V30 1 C  -40.7540 34.5779 -3.0893 0
M  V30 2 C  -40.6803 36.0305 -2.6385 0
M  V30 3 N  -41.8869 36.2800 -1.8443 0
M  V30 4 C  -42.5349 35.0122 -1.5035 0
M  V30 5 C  -41.6046 33.9035 -2.0179 0 CFG=1
M  V30 6 N  -42.2813 32.6958 -2.4892 0
M  V30 7 C  -43.2110 32.5933 -3.4560 0
M  V30 8 C  -43.5513 31.2064 -3.8609 0
M  V30 9 C  -42.7991 30.0076 -3.3069 0
M  V30 10 C  -42.7515 28.8458 -4.3152 0
M  V30 11 C  -44.0437 28.6902 -5.1090 0
M  V30 12 N  -44.8106 29.7910 -5.2103 0
M  V30 13 N  -44.5106 31.0374 -4.7153 0
M  V30 14 O  -44.3514 27.6137 -5.6103 0
M  V30 15 O  -43.7255 33.5659 -4.0102 0
M  V30 16 C  -42.3992 37.4669 -1.4358 0
M  V30 17 C  -41.6378 38.8003 -1.6206 0 CFG=1
M  V30 18 C  -40.3496 38.8844 -0.7905 0
M  V30 19 C  -39.2588 39.0287 -1.8365 0
M  V30 20 N  -39.7729 39.1456 -3.0755 0
M  V30 21 C  -41.2353 39.1668 -3.0603 0
M  V30 22 C  -39.0635 39.1491 -4.2369 0
M  V30 23 C  -37.7768 39.5694 -4.4312 0
M  V30 24 C  -37.5711 39.3105 -5.8154 0
M  V30 25 N  -38.6268 38.7721 -6.4101 0
M  V30 26 N  -39.5513 38.6833 -5.4356 0
M  V30 27 O  -38.0677 39.0017 -1.5301 0
M  V30 28 O  -43.4813 37.5186 -0.8504 0
M  V30 29 H  -41.2435 34.5405 -4.0622 0
M  V30 30 H  -39.7704 34.1267 -3.2105 0
M  V30 31 H  -40.5986 36.6545 -3.5230 0
M  V30 32 H  -39.7976 36.1849 -2.0171 0
M  V30 33 H  -42.6833 34.9207 -0.4261 0
M  V30 34 H  -43.5210 34.9918 -1.9663 0
M  V30 35 H  -40.9442 33.6125 -1.1995 0
M  V30 36 H  -41.9553 31.8353 -2.0731 0
M  V30 37 H  -41.7690 30.2602 -3.0558 0
M  V30 38 H  -43.2711 29.6786 -2.3800 0
M  V30 39 H  -41.9512 29.0200 -5.0352 0
M  V30 40 H  -42.5205 27.9188 -3.7940 0
M  V30 41 H  -45.6418 29.7545 -5.7841 0
M  V30 42 H  -42.3117 39.5824 -1.2656 0
M  V30 43 H  -40.1716 38.0035 -0.1717 0
M  V30 44 H  -40.3498 39.7609 -0.1418 0
M  V30 45 H  -41.5667 40.1788 -3.2975 0
M  V30 46 H  -41.6886 38.5117 -3.8052 0
M  V30 47 H  -37.0876 39.9877 -3.7120 0
M  V30 48 H  -36.6862 39.4826 -6.4045 0
M  V30 49 H  -40.4572 38.2421 -5.5947 0
M  V30 END ATOM
M  V30 BEGIN BOND
M  V30 1 1 1 2
M  V30 2 1 1 5
M  V30 3 1 1 29
M  V30 4 1 1 30
M  V30 5 1 2 3
M  V30 6 1 2 31
M  V30 7 1 2 32
M  V30 8 1 3 4
M  V30 9 1 3 16
M  V30 10 1 4 5
M  V30 11 1 4 33
M  V30 12 1 4 34
M  V30 13 1 5 6
M  V30 14 1 5 35
M  V30 15 1 6 7
M  V30 16 1 6 36
M  V30 17 1 7 8
M  V30 18 2 7 15
M  V30 19 1 8 9
M  V30 20 2 8 13
M  V30 21 1 9 10
M  V30 22 1 9 37
M  V30 23 1 9 38
M  V30 24 1 10 11
M  V30 25 1 10 39
M  V30 26 1 10 40
M  V30 27 1 11 12
M  V30 28 2 11 14
M  V30 29 1 12 13
M  V30 30 1 12 41
M  V30 31 1 16 17
M  V30 32 2 16 28
M  V30 33 1 17 18
M  V30 34 1 17 21
M  V30 35 1 17 42
M  V30 36 1 18 19
M  V30 37 1 18 43
M  V30 38 1 18 44
M  V30 39 1 19 20
M  V30 40 2 19 27
M  V30 41 1 20 21
M  V30 42 1 20 22
M  V30 43 1 21 45
M  V30 44 1 21 46
M  V30 45 1 22 26
M  V30 46 2 22 23
M  V30 47 1 23 24
M  V30 48 1 23 47
M  V30 49 1 24 48
M  V30 50 2 24 25
M  V30 51 1 25 26
M  V30 52 1 26 49
M  V30 END BOND
M  V30 END CTAB
M  END
> <s_m_entry_id>
274

> <i_f3d_flags>
0

> <r_lp_tautomer_probability>
0.5

> <r_epik_Ionization_Penalty>
  0.0001

> <r_epik_State_Penalty>
  0.4107

> <i_epik_Tot_Q>
0

> <r_i_docking_score>
-5.73398518308537

> <r_i_glide_gscore>
-6.14468518308537

> <r_i_glide_emodel>
-59.6413705817642

> <s_m_subgroup_title>
nsp13-core1_lib_top-500_pv

> <s_m_subgroupid>
nsp13-core1_lib_top-500_pv

> <b_m_subgroup_collapsed>
0

$$$$
Core_1_EN300-219437_EN300-219437
                    3D
 Schrodinger Suite 2023-1.
  0  0  0     0  0            999 V3000
M  V30 BEGIN CTAB
M  V30 COUNTS 45 47 0 0 0
M  V30 BEGIN ATOM
M  V30 1 C  -41.9497 40.3157 -5.3990 0
M  V30 2 C  -40.5208 39.8840 -5.4790 0
M  V30 3 C  -39.6476 39.4830 -4.5037 0
M  V30 4 C  -39.8577 39.3599 -3.0133 0
M  V30 5 C  -40.9811 38.3730 -2.6412 0
M  V30 6 N  -40.7827 37.0457 -2.7922 0
M  V30 7 C  -39.6614 36.4284 -3.4941 0
M  V30 8 C  -39.9390 34.9314 -3.5013 0
M  V30 9 C  -40.8347 34.7155 -2.2859 0 CFG=1
M  V30 10 C  -41.6392 36.0246 -2.1851 0
M  V30 11 N  -41.6040 33.4703 -2.3646 0
M  V30 12 C  -42.5543 33.1386 -3.2587 0
M  V30 13 C  -42.8723 31.6801 -3.3464 0
M  V30 14 C  -43.9337 31.1991 -4.2934 0
M  V30 15 C  -43.9629 29.7471 -4.5425 0
M  V30 16 C  -43.1787 28.9568 -3.7964 0
M  V30 17 N  -42.3506 29.4767 -2.8013 0
M  V30 18 N  -42.1960 30.8290 -2.6342 0
M  V30 19 O  -44.7513 31.9520 -4.8101 0
M  V30 20 O  -43.0716 33.9628 -4.0097 0
M  V30 21 O  -42.0093 38.8230 -2.1374 0
M  V30 22 C  -38.4475 39.2069 -5.2204 0
M  V30 23 N  -38.5710 39.3846 -6.5230 0
M  V30 24 N  -39.8428 39.8041 -6.6810 0
M  V30 25 C  -40.3289 40.0984 -8.0102 0
M  V30 26 H  -42.2389 40.5372 -4.3713 0
M  V30 27 H  -42.1198 41.2170 -5.9889 0
M  V30 28 H  -42.6104 39.5313 -5.7734 0
M  V30 29 H  -38.9436 39.0460 -2.5100 0
M  V30 30 H  -40.1008 40.3336 -2.5870 0
M  V30 31 H  -39.5519 36.7920 -4.5141 0
M  V30 32 H  -38.7495 36.6417 -2.9429 0
M  V30 33 H  -40.4808 34.6868 -4.4124 0
M  V30 34 H  -39.0280 34.3336 -3.4940 0
M  V30 35 H  -40.1975 34.6515 -1.4025 0
M  V30 36 H  -41.8748 36.2589 -1.1458 0
M  V30 37 H  -42.5783 36.0023 -2.7348 0
M  V30 38 H  -41.2691 32.7110 -1.7868 0
M  V30 39 H  -44.6065 29.3532 -5.3163 0
M  V30 40 H  -43.1239 27.8835 -3.9013 0
M  V30 41 H  -41.8876 28.8659 -2.1292 0
M  V30 42 H  -37.4981 38.8658 -4.8333 0
M  V30 43 H  -41.2072 39.4849 -8.2244 0
M  V30 44 H  -40.5996 41.1543 -8.0713 0
M  V30 45 H  -39.5578 39.8842 -8.7522 0
M  V30 END ATOM
M  V30 BEGIN BOND
M  V30 1 1 1 2
M  V30 2 1 1 26
M  V30 3 1 1 27
M  V30 4 1 1 28
M  V30 5 2 2 3
M  V30 6 1 2 24
M  V30 7 1 3 4
M  V30 8 1 3 22
M  V30 9 1 4 5
M  V30 10 1 4 29
M  V30 11 1 4 30
M  V30 12 1 5 6
M  V30 13 2 5 21
M  V30 14 1 6 7
M  V30 15 1 6 10
M  V30 16 1 7 8
M  V30 17 1 7 31
M  V30 18 1 7 32
M  V30 19 1 8 9
M  V30 20 1 8 33
M  V30 21 1 8 34
M  V30 22 1 9 10
M  V30 23 1 9 11
M  V30 24 1 9 35
M  V30 25 1 10 36
M  V30 26 1 10 37
M  V30 27 1 11 12
M  V30 28 1 11 38
M  V30 29 1 12 13
M  V30 30 2 12 20
M  V30 31 1 13 14
M  V30 32 2 13 18
M  V30 33 1 14 15
M  V30 34 2 14 19
M  V30 35 2 15 16
M  V30 36 1 15 39
M  V30 37 1 16 17
M  V30 38 1 16 40
M  V30 39 1 17 18
M  V30 40 1 17 41
M  V30 41 2 22 23
M  V30 42 1 22 42
M  V30 43 1 23 24
M  V30 44 1 24 25
M  V30 45 1 25 43
M  V30 46 1 25 44
M  V30 47 1 25 45
M  V30 END BOND
M  V30 END CTAB
M  END
> <s_m_entry_id>
279

> <i_f3d_flags>
0

> <r_lp_tautomer_probability>
0.999746388232414

> <r_epik_Ionization_Penalty>
  0.4606

> <r_epik_State_Penalty>
  0.0666

> <i_epik_Tot_Q>
0

> <r_i_docking_score>
-5.72913343590596

> <r_i_glide_gscore>
-5.79573343590596

> <r_i_glide_emodel>
-52.7321247201842

> <s_m_subgroup_title>
nsp13-core1_lib_top-500_pv

> <s_m_subgroupid>
nsp13-core1_lib_top-500_pv

> <b_m_subgroup_collapsed>
0

$$$$
Core_1_EN300-267001_EN300-267001
                    3D
 Schrodinger Suite 2023-1.
  0  0  0     0  0            999 V3000
M  V30 BEGIN CTAB
M  V30 COUNTS 52 55 0 0 0
M  V30 BEGIN ATOM
M  V30 1 C  -41.6961 33.8743 0.8219 0
M  V30 2 C  -40.8586 34.9991 0.2006 0
M  V30 3 N  -41.1175 34.9404 -1.2387 0
M  V30 4 C  -42.1910 34.0004 -1.5267 0
M  V30 5 C  -42.8327 33.6520 -0.1746 0 CFG=1
M  V30 6 N  -43.3350 32.2833 -0.1540 0
M  V30 7 C  -44.3070 31.8379 -0.9652 0
M  V30 8 C  -44.4702 30.3181 -1.1017 0
M  V30 9 C  -44.1351 29.9218 -2.5160 0
M  V30 10 N  -44.8078 30.2856 -3.6104 0
M  V30 11 C  -44.1485 29.6675 -4.6736 0
M  V30 12 C  -43.1073 28.9161 -4.1842 0
M  V30 13 N  -43.1312 29.0872 -2.8107 0
M  V30 14 O  -45.0242 32.5975 -1.6187 0
M  V30 15 C  -40.4739 35.6299 -2.2045 0
M  V30 16 C  -39.4755 36.7201 -1.7871 0
M  V30 17 O  -39.3584 37.6688 -2.8439 0
M  V30 18 C  -38.4609 38.6865 -2.7186 0
M  V30 19 C  -37.9746 39.5384 -3.7790 0
M  V30 20 N  -37.0574 40.4060 -3.4016 0
M  V30 21 S  -36.8259 40.1593 -1.7690 0
M  V30 22 N  -37.9342 38.9355 -1.5357 0
M  V30 23 N  -38.3761 39.4814 -5.1420 0
M  V30 24 C  -37.6013 40.0975 -6.2152 0
M  V30 25 C  -38.5106 40.9520 -7.1164 0
M  V30 26 O  -39.5649 40.1416 -7.6227 0
M  V30 27 C  -40.3818 39.6461 -6.5703 0
M  V30 28 C  -39.5530 38.7612 -5.6199 0
M  V30 29 O  -40.6822 35.4239 -3.4026 0
M  V30 30 H  -42.0547 34.1222 1.8226 0
M  V30 31 H  -41.0868 32.9716 0.9061 0
M  V30 32 H  -41.1872 35.9647 0.5845 0
M  V30 33 H  -39.7988 34.8801 0.4333 0
M  V30 34 H  -41.7535 33.1215 -1.9991 0
M  V30 35 H  -42.9233 34.4265 -2.2154 0
M  V30 36 H  -43.6371 34.3574 0.0418 0
M  V30 37 H  -42.9193 31.6375 0.5150 0
M  V30 38 H  -45.4980 30.0340 -0.8763 0
M  V30 39 H  -43.8211 29.7920 -0.3992 0
M  V30 40 H  -44.4809 29.7988 -5.6928 0
M  V30 41 H  -42.3813 28.2845 -4.6775 0
M  V30 42 H  -42.5331 28.6156 -2.1343 0
M  V30 43 H  -39.8298 37.2199 -0.8814 0
M  V30 44 H  -38.5116 36.2524 -1.5741 0
M  V30 45 H  -36.7826 40.7086 -5.8400 0
M  V30 46 H  -37.1517 39.3020 -6.8080 0
M  V30 47 H  -37.9513 41.3595 -7.9566 0
M  V30 48 H  -38.9143 41.8050 -6.5679 0
M  V30 49 H  -41.2081 39.0844 -7.0027 0
M  V30 50 H  -40.8272 40.4775 -6.0219 0
M  V30 51 H  -39.2381 37.8473 -6.1233 0
M  V30 52 H  -40.2114 38.4706 -4.8046 0
M  V30 END ATOM
M  V30 BEGIN BOND
M  V30 1 1 1 2
M  V30 2 1 1 5
M  V30 3 1 1 30
M  V30 4 1 1 31
M  V30 5 1 2 3
M  V30 6 1 2 32
M  V30 7 1 2 33
M  V30 8 1 3 4
M  V30 9 1 3 15
M  V30 10 1 4 5
M  V30 11 1 4 34
M  V30 12 1 4 35
M  V30 13 1 5 6
M  V30 14 1 5 36
M  V30 15 1 6 7
M  V30 16 1 6 37
M  V30 17 1 7 8
M  V30 18 2 7 14
M  V30 19 1 8 9
M  V30 20 1 8 38
M  V30 21 1 8 39
M  V30 22 2 9 10
M  V30 23 1 9 13
M  V30 24 1 10 11
M  V30 25 2 11 12
M  V30 26 1 11 40
M  V30 27 1 12 13
M  V30 28 1 12 41
M  V30 29 1 13 42
M  V30 30 1 15 16
M  V30 31 2 15 29
M  V30 32 1 16 17
M  V30 33 1 16 43
M  V30 34 1 16 44
M  V30 35 1 17 18
M  V30 36 1 18 19
M  V30 37 2 18 22
M  V30 38 2 19 20
M  V30 39 1 19 23
M  V30 40 1 20 21
M  V30 41 1 21 22
M  V30 42 1 23 24
M  V30 43 1 23 28
M  V30 44 1 24 25
M  V30 45 1 24 45
M  V30 46 1 24 46
M  V30 47 1 25 26
M  V30 48 1 25 47
M  V30 49 1 25 48
M  V30 50 1 26 27
M  V30 51 1 27 28
M  V30 52 1 27 49
M  V30 53 1 27 50
M  V30 54 1 28 51
M  V30 55 1 28 52
M  V30 END BOND
M  V30 END CTAB
M  END
> <s_m_entry_id>
286

> <i_f3d_flags>
0

> <r_lp_tautomer_probability>
0.499999999999999

> <r_epik_Ionization_Penalty>
  0.0873

> <r_epik_State_Penalty>
  0.0873

> <i_epik_Tot_Q>
0

> <r_i_docking_score>
-5.72527670039772

> <r_i_glide_gscore>
-5.81257670039772

> <r_i_glide_emodel>
-58.7826122089067

> <s_m_subgroup_title>
nsp13-core1_lib_top-500_pv

> <s_m_subgroupid>
nsp13-core1_lib_top-500_pv

> <b_m_subgroup_collapsed>
0

$$$$
Core_1_EN300-64536_EN300-64536
                    3D
 Schrodinger Suite 2023-1.
  0  0  0     0  0            999 V3000
M  V30 BEGIN CTAB
M  V30 COUNTS 41 43 0 0 0
M  V30 BEGIN ATOM
M  V30 1 C  -39.4741 39.8903 -7.3045 0
M  V30 2 O  -38.4151 39.0840 -6.8102 0
M  V30 3 C  -38.2731 39.1119 -5.3966 0
M  V30 4 C  -39.3612 38.2735 -4.6938 0
M  V30 5 C  -39.1512 38.1663 -3.1763 0
M  V30 6 N  -39.8313 37.2163 -2.4981 0
M  V30 7 C  -39.6405 36.9492 -1.0767 0
M  V30 8 C  -40.4351 35.6770 -0.7749 0
M  V30 9 C  -41.4893 35.6073 -1.8737 0 CFG=1
M  V30 10 C  -40.8507 36.3388 -3.0629 0
M  V30 11 N  -41.8464 34.2305 -2.1981 0
M  V30 12 C  -42.8309 33.8793 -3.0361 0
M  V30 13 C  -42.9771 32.4433 -3.2986 0
M  V30 14 C  -42.4791 31.3563 -2.5787 0
M  V30 15 C  -42.9326 30.3141 -3.3218 0
M  V30 16 C  -43.6383 30.7250 -4.3433 0
M  V30 17 C  -44.0817 29.6190 -5.1062 0
M  V30 18 C  -43.5501 28.5296 -4.4223 0
M  V30 19 N  -42.8343 28.9584 -3.2859 0
M  V30 20 O  -43.7401 32.0644 -4.4105 0
M  V30 21 O  -43.5518 34.6917 -3.6102 0
M  V30 22 O  -38.3523 38.9153 -2.6160 0
M  V30 23 H  -39.4559 39.8837 -8.3945 0
M  V30 24 H  -39.3699 40.9252 -6.9793 0
M  V30 25 H  -40.4470 39.5142 -6.9852 0
M  V30 26 H  -37.2906 38.6955 -5.1678 0
M  V30 27 H  -38.2643 40.1428 -5.0348 0
M  V30 28 H  -40.3507 38.6932 -4.8695 0
M  V30 29 H  -39.3565 37.2736 -5.1306 0
M  V30 30 H  -38.5845 36.8304 -0.8279 0
M  V30 31 H  -40.0306 37.7923 -0.5039 0
M  V30 32 H  -39.7637 34.8183 -0.8346 0
M  V30 33 H  -40.8720 35.6855 0.2241 0
M  V30 34 H  -42.3745 36.1573 -1.5476 0
M  V30 35 H  -41.6078 36.9012 -3.6106 0
M  V30 36 H  -40.3737 35.6393 -3.7517 0
M  V30 37 H  -41.3012 33.4971 -1.7728 0
M  V30 38 H  -41.8764 31.3426 -1.6820 0
M  V30 39 H  -44.6739 29.6040 -6.0094 0
M  V30 40 H  -43.6181 27.4755 -4.6422 0
M  V30 41 H  -42.3577 28.3918 -2.5910 0
M  V30 END ATOM
M  V30 BEGIN BOND
M  V30 1 1 1 2
M  V30 2 1 1 23
M  V30 3 1 1 24
M  V30 4 1 1 25
M  V30 5 1 2 3
M  V30 6 1 3 4
M  V30 7 1 3 26
M  V30 8 1 3 27
M  V30 9 1 4 5
M  V30 10 1 4 28
M  V30 11 1 4 29
M  V30 12 1 5 6
M  V30 13 2 5 22
M  V30 14 1 6 7
M  V30 15 1 6 10
M  V30 16 1 7 8
M  V30 17 1 7 30
M  V30 18 1 7 31
M  V30 19 1 8 9
M  V30 20 1 8 32
M  V30 21 1 8 33
M  V30 22 1 9 10
M  V30 23 1 9 11
M  V30 24 1 9 34
M  V30 25 1 10 35
M  V30 26 1 10 36
M  V30 27 1 11 12
M  V30 28 1 11 37
M  V30 29 1 12 13
M  V30 30 2 12 21
M  V30 31 2 13 14
M  V30 32 1 13 20
M  V30 33 1 14 15
M  V30 34 1 14 38
M  V30 35 2 15 16
M  V30 36 1 15 19
M  V30 37 1 16 17
M  V30 38 1 16 20
M  V30 39 2 17 18
M  V30 40 1 17 39
M  V30 41 1 18 19
M  V30 42 1 18 40
M  V30 43 1 19 41
M  V30 END BOND
M  V30 END CTAB
M  END
> <s_m_entry_id>
289

> <i_f3d_flags>
0

> <r_lp_tautomer_probability>
1

> <r_epik_Ionization_Penalty>
  0.0000

> <r_epik_State_Penalty>
  0.0000

> <i_epik_Tot_Q>
0

> <r_i_docking_score>
-5.72446712406967

> <r_i_glide_gscore>
-5.72446712406967

> <r_i_glide_emodel>
-49.4312647137115

> <s_m_subgroup_title>
nsp13-core1_lib_top-500_pv

> <s_m_subgroupid>
nsp13-core1_lib_top-500_pv

> <b_m_subgroup_collapsed>
0

$$$$
Core_1_EN300-06995_EN300-06995
                    3D
 Schrodinger Suite 2023-1.
  0  0  0     0  0            999 V3000
M  V30 BEGIN CTAB
M  V30 COUNTS 61 64 0 0 0
M  V30 BEGIN ATOM
M  V30 1 C  -43.2597 23.7618 4.0102 0
M  V30 2 S  -42.3210 22.4404 3.1904 0
M  V30 3 C  -40.6554 23.1088 3.2586 0
M  V30 4 N  -40.3577 24.2491 3.7612 0
M  V30 5 N  -39.0273 24.5304 3.6732 0
M  V30 6 C  -38.2481 23.5590 3.1046 0
M  V30 7 S  -36.5928 23.5220 2.8767 0
M  V30 8 S  -39.2652 22.2365 2.6224 0
M  V30 9 C  -38.5499 25.7961 4.1099 0
M  V30 10 C  -38.7539 26.2249 5.4397 0
M  V30 11 C  -38.3319 27.5106 5.8445 0
M  V30 12 C  -37.7383 28.3971 4.9165 0
M  V30 13 C  -37.5510 27.9584 3.5897 0
M  V30 14 C  -37.9513 26.6766 3.1897 0
M  V30 15 C  -37.2379 29.7461 5.3650 0
M  V30 16 N  -37.5830 30.8408 4.6472 0
M  V30 17 C  -37.1166 32.1915 4.9593 0
M  V30 18 C  -38.0572 33.1541 4.2253 0
M  V30 19 C  -38.6020 32.3311 3.0611 0 CFG=1
M  V30 20 C  -38.6065 30.9058 3.6097 0
M  V30 21 N  -39.9516 32.6838 2.6522 0
M  V30 22 C  -40.3293 33.7609 1.9578 0
M  V30 23 C  -41.8069 33.8070 1.5644 0
M  V30 24 C  -42.0019 34.0076 0.0522 0
M  V30 25 S  -43.6097 33.3042 -0.5118 0
M  V30 26 N  -43.3563 31.5978 -0.4103 0 CFG=1
M  V30 27 C  -42.3510 30.9197 -1.2335 0
M  V30 28 C  -42.9022 30.4264 -2.5369 0
M  V30 29 C  -43.3305 31.0748 -3.6635 0
M  V30 30 C  -43.7040 30.0280 -4.5552 0
M  V30 31 N  -43.5176 28.8265 -4.0377 0
M  V30 32 N  -43.0237 29.0840 -2.8103 0
M  V30 33 O  -43.8011 33.6513 -1.9277 0
M  V30 34 O  -44.6419 33.6421 0.4780 0
M  V30 35 O  -39.5604 34.6589 1.6157 0
M  V30 36 O  -36.5320 29.8115 6.3711 0
M  V30 37 H  -44.3065 23.4713 4.0952 0
M  V30 38 H  -42.8733 23.9489 5.0136 0
M  V30 39 H  -43.2098 24.6831 3.4323 0
M  V30 40 H  -39.2264 25.5665 6.1532 0
M  V30 41 H  -38.4745 27.8181 6.8712 0
M  V30 42 H  -37.0961 28.5999 2.8548 0
M  V30 43 H  -37.8097 26.3737 2.1621 0
M  V30 44 H  -36.0957 32.2975 4.5907 0
M  V30 45 H  -37.1078 32.3912 6.0319 0
M  V30 46 H  -37.5557 34.0653 3.8974 0
M  V30 47 H  -38.8715 33.4431 4.8918 0
M  V30 48 H  -37.9179 32.3925 2.2118 0
M  V30 49 H  -39.5514 30.6786 4.1020 0
M  V30 50 H  -38.4830 30.2050 2.7904 0
M  V30 51 H  -40.6515 31.9575 2.7903 0
M  V30 52 H  -42.3093 34.5988 2.1194 0
M  V30 53 H  -42.2775 32.8724 1.8710 0
M  V30 54 H  -41.1940 33.5745 -0.5334 0
M  V30 55 H  -42.0129 35.0730 -0.1740 0
M  V30 56 H  -43.4039 31.2521 0.5620 0
M  V30 57 H  -41.9519 30.0835 -0.6580 0
M  V30 58 H  -41.5099 31.5836 -1.4243 0
M  V30 59 H  -43.3620 32.1397 -3.8375 0
M  V30 60 H  -44.0936 30.1063 -5.5600 0
M  V30 61 H  -42.7553 28.3404 -2.1674 0
M  V30 END ATOM
M  V30 BEGIN BOND
M  V30 1 1 1 2
M  V30 2 1 1 37
M  V30 3 1 1 38
M  V30 4 1 1 39
M  V30 5 1 2 3
M  V30 6 2 3 4
M  V30 7 1 3 8
M  V30 8 1 4 5
M  V30 9 1 5 6
M  V30 10 1 5 9
M  V30 11 2 6 7
M  V30 12 1 6 8
M  V30 13 2 9 10
M  V30 14 1 9 14
M  V30 15 1 10 11
M  V30 16 1 10 40
M  V30 17 2 11 12
M  V30 18 1 11 41
M  V30 19 1 12 13
M  V30 20 1 12 15
M  V30 21 2 13 14
M  V30 22 1 13 42
M  V30 23 1 14 43
M  V30 24 1 15 16
M  V30 25 2 15 36
M  V30 26 1 16 17
M  V30 27 1 16 20
M  V30 28 1 17 18
M  V30 29 1 17 44
M  V30 30 1 17 45
M  V30 31 1 18 19
M  V30 32 1 18 46
M  V30 33 1 18 47
M  V30 34 1 19 20
M  V30 35 1 19 21
M  V30 36 1 19 48
M  V30 37 1 20 49
M  V30 38 1 20 50
M  V30 39 1 21 22
M  V30 40 1 21 51
M  V30 41 1 22 23
M  V30 42 2 22 35
M  V30 43 1 23 24
M  V30 44 1 23 52
M  V30 45 1 23 53
M  V30 46 1 24 25
M  V30 47 1 24 54
M  V30 48 1 24 55
M  V30 49 1 25 26
M  V30 50 2 25 33
M  V30 51 2 25 34
M  V30 52 1 26 27
M  V30 53 1 26 56
M  V30 54 1 27 57
M  V30 55 1 27 58
M  V30 56 1 27 28
M  V30 57 1 28 32
M  V30 58 2 28 29
M  V30 59 1 29 30
M  V30 60 1 29 59
M  V30 61 1 30 60
M  V30 62 2 30 31
M  V30 63 1 31 32
M  V30 64 1 32 61
M  V30 END BOND
M  V30 END CTAB
M  END
> <s_m_entry_id>
293

> <i_f3d_flags>
0

> <r_lp_tautomer_probability>
0.5

> <r_epik_Ionization_Penalty>
  0.0003

> <r_epik_State_Penalty>
  0.4107

> <i_epik_Tot_Q>
0

> <r_i_docking_score>
-5.71703582796793

> <r_i_glide_gscore>
-6.12773582796793

> <r_i_glide_emodel>
-71.8670230091352

> <s_m_subgroup_title>
nsp13-core1_lib_top-500_pv

> <s_m_subgroupid>
nsp13-core1_lib_top-500_pv

> <b_m_subgroup_collapsed>
0

$$$$
Core_1_EN300-116503_EN300-116503
                    3D
 Schrodinger Suite 2023-1.
  0  0  0     0  0            999 V3000
M  V30 BEGIN CTAB
M  V30 COUNTS 44 47 0 0 0
M  V30 BEGIN ATOM
M  V30 1 C  -38.4946 31.2423 4.2078 0
M  V30 2 C  -38.9065 32.5102 3.4698 0
M  V30 3 N  -40.2547 32.2838 3.9892 0 CHG=1
M  V30 4 C  -39.6872 31.5346 5.1115 0
M  V30 5 C  -41.0457 33.4908 4.3141 0
M  V30 6 C  -42.5093 33.1163 4.5731 0
M  V30 7 N  -43.4635 33.4931 3.6954 0
M  V30 8 C  -44.8571 33.0753 3.8210 0
M  V30 9 C  -45.6090 33.7020 2.6463 0
M  V30 10 C  -44.5342 34.0767 1.6286 0 CFG=1
M  V30 11 C  -43.2394 34.2013 2.4356 0
M  V30 12 N  -44.3623 33.0447 0.6136 0
M  V30 13 C  -44.6218 33.1648 -0.6971 0
M  V30 14 C  -44.2171 32.0196 -1.5322 0
M  V30 15 C  -43.4877 30.8858 -1.1733 0
M  V30 16 C  -43.3929 30.2387 -2.3613 0
M  V30 17 C  -43.9973 30.8946 -3.3155 0
M  V30 18 C  -43.8917 30.1826 -4.5356 0
M  V30 19 C  -43.1516 29.0547 -4.1851 0
M  V30 20 N  -42.8399 29.0838 -2.8111 0
M  V30 21 O  -44.5578 32.0427 -2.8916 0
M  V30 22 O  -45.1497 34.1542 -1.2042 0
M  V30 23 O  -42.7696 32.4744 5.5903 0
M  V30 24 H  -38.6174 30.3381 3.6076 0
M  V30 25 H  -37.5200 31.2860 4.6938 0
M  V30 26 H  -38.4353 33.4124 3.8661 0
M  V30 27 H  -38.8377 32.4497 2.3825 0
M  V30 28 H  -40.2755 30.6600 5.3916 0
M  V30 29 H  -39.4341 32.1548 5.9733 0
M  V30 30 H  -40.6434 33.9807 5.2021 0
M  V30 31 H  -40.9396 34.2163 3.5098 0
M  V30 32 H  -44.9047 31.9867 3.7592 0
M  V30 33 H  -45.2858 33.3773 4.7779 0
M  V30 34 H  -46.3776 33.0429 2.2406 0
M  V30 35 H  -46.1110 34.6086 2.9868 0
M  V30 36 H  -44.7750 35.0315 1.1568 0
M  V30 37 H  -43.0322 35.2504 2.6544 0
M  V30 38 H  -42.3887 33.8003 1.8818 0
M  V30 39 H  -43.9535 32.1736 0.9427 0
M  V30 40 H  -43.0908 30.6017 -0.2089 0
M  V30 41 H  -44.2798 30.4327 -5.5116 0
M  V30 42 H  -42.8196 28.2238 -4.7910 0
M  V30 43 H  -42.3531 28.3855 -2.2514 0
M  V30 44 H  -40.7513 31.6299 3.3773 0
M  V30 END ATOM
M  V30 BEGIN BOND
M  V30 1 1 1 2
M  V30 2 1 1 4
M  V30 3 1 1 24
M  V30 4 1 1 25
M  V30 5 1 2 3
M  V30 6 1 2 26
M  V30 7 1 2 27
M  V30 8 1 3 4
M  V30 9 1 3 5
M  V30 10 1 3 44
M  V30 11 1 4 28
M  V30 12 1 4 29
M  V30 13 1 5 6
M  V30 14 1 5 30
M  V30 15 1 5 31
M  V30 16 1 6 7
M  V30 17 2 6 23
M  V30 18 1 7 8
M  V30 19 1 7 11
M  V30 20 1 8 9
M  V30 21 1 8 32
M  V30 22 1 8 33
M  V30 23 1 9 10
M  V30 24 1 9 34
M  V30 25 1 9 35
M  V30 26 1 10 11
M  V30 27 1 10 12
M  V30 28 1 10 36
M  V30 29 1 11 37
M  V30 30 1 11 38
M  V30 31 1 12 13
M  V30 32 1 12 39
M  V30 33 1 13 14
M  V30 34 2 13 22
M  V30 35 2 14 15
M  V30 36 1 14 21
M  V30 37 1 15 16
M  V30 38 1 15 40
M  V30 39 2 16 17
M  V30 40 1 16 20
M  V30 41 1 17 18
M  V30 42 1 17 21
M  V30 43 2 18 19
M  V30 44 1 18 41
M  V30 45 1 19 20
M  V30 46 1 19 42
M  V30 47 1 20 43
M  V30 END BOND
M  V30 END CTAB
M  END
> <s_m_entry_id>
295

> <i_f3d_flags>
0

> <r_epik_Ionization_Penalty>
  0.0137

> <r_epik_State_Penalty>
  0.0137

> <i_epik_Tot_Q>
1

> <r_i_docking_score>
-5.71664835502142

> <r_i_glide_gscore>
-5.73034835502142

> <r_i_glide_emodel>
-49.9878017905173

> <s_m_subgroup_title>
nsp13-core1_lib_top-500_pv

> <s_m_subgroupid>
nsp13-core1_lib_top-500_pv

> <b_m_subgroup_collapsed>
0

$$$$
Core_1_EN300-66044_EN300-66044
                    3D
 Schrodinger Suite 2023-1.
  0  0  0     0  0            999 V3000
M  V30 BEGIN CTAB
M  V30 COUNTS 40 43 0 0 0
M  V30 BEGIN ATOM
M  V30 1 C  -42.8823 34.7034 -0.0675 0
M  V30 2 C  -41.3851 34.9946 0.0043 0
M  V30 3 N  -41.0222 35.5892 -1.2814 0
M  V30 4 C  -42.1009 35.3971 -2.2560 0
M  V30 5 C  -43.1807 34.5586 -1.5553 0 CFG=1
M  V30 6 N  -43.1136 33.1555 -1.9513 0
M  V30 7 C  -43.5219 32.6356 -3.1176 0
M  V30 8 C  -43.3205 31.1818 -3.3013 0
M  V30 9 C  -43.4734 30.3742 -4.4706 0
M  V30 10 C  -43.1515 29.0852 -4.1487 0
M  V30 11 N  -42.8302 29.0839 -2.8103 0
M  V30 12 C  -42.9414 30.3478 -2.2806 0
M  V30 13 O  -44.0142 33.3236 -4.0103 0
M  V30 14 C  -39.8718 36.2823 -1.4520 0
M  V30 15 C  -39.5560 36.8584 -2.8052 0
M  V30 16 C  -39.5394 36.0441 -3.9649 0
M  V30 17 C  -39.1514 36.5711 -5.2154 0
M  V30 18 C  -38.7514 37.9211 -5.3317 0
M  V30 19 C  -38.7611 38.7096 -4.1603 0
M  V30 20 C  -39.1525 38.2107 -2.9065 0
M  V30 21 O  -38.3119 39.9749 -4.4901 0
M  V30 22 C  -38.0666 39.8711 -5.8317 0
M  V30 23 N  -38.3132 38.6839 -6.4020 0
M  V30 24 O  -39.0788 36.4803 -0.5310 0
M  V30 25 H  -43.4302 35.5612 0.3250 0
M  V30 26 H  -43.1731 33.8353 0.5266 0
M  V30 27 H  -41.1550 35.6473 0.8483 0
M  V30 28 H  -40.8207 34.0696 0.1332 0
M  V30 29 H  -41.7726 34.9155 -3.1736 0
M  V30 30 H  -42.5032 36.3741 -2.5284 0
M  V30 31 H  -44.1793 34.9360 -1.7831 0
M  V30 32 H  -42.7089 32.5188 -1.2806 0
M  V30 33 H  -43.7721 30.7057 -5.4531 0
M  V30 34 H  -43.1189 28.1803 -4.7383 0
M  V30 35 H  -42.5513 28.2714 -2.2611 0
M  V30 36 H  -42.7303 30.5200 -1.2340 0
M  V30 37 H  -39.7733 34.9923 -3.9016 0
M  V30 38 H  -39.1458 35.9384 -6.0892 0
M  V30 39 H  -39.1179 38.8466 -2.0339 0
M  V30 40 H  -37.6860 40.7205 -6.3812 0
M  V30 END ATOM
M  V30 BEGIN BOND
M  V30 1 1 1 2
M  V30 2 1 1 5
M  V30 3 1 1 25
M  V30 4 1 1 26
M  V30 5 1 2 3
M  V30 6 1 2 27
M  V30 7 1 2 28
M  V30 8 1 3 4
M  V30 9 1 3 14
M  V30 10 1 4 5
M  V30 11 1 4 29
M  V30 12 1 4 30
M  V30 13 1 5 6
M  V30 14 1 5 31
M  V30 15 1 6 7
M  V30 16 1 6 32
M  V30 17 1 7 8
M  V30 18 2 7 13
M  V30 19 1 8 9
M  V30 20 2 8 12
M  V30 21 2 9 10
M  V30 22 1 9 33
M  V30 23 1 10 11
M  V30 24 1 10 34
M  V30 25 1 11 12
M  V30 26 1 11 35
M  V30 27 1 12 36
M  V30 28 1 14 15
M  V30 29 2 14 24
M  V30 30 2 15 16
M  V30 31 1 15 20
M  V30 32 1 16 17
M  V30 33 1 16 37
M  V30 34 2 17 18
M  V30 35 1 17 38
M  V30 36 1 18 19
M  V30 37 1 18 23
M  V30 38 2 19 20
M  V30 39 1 19 21
M  V30 40 1 20 39
M  V30 41 1 21 22
M  V30 42 2 22 23
M  V30 43 1 22 40
M  V30 END BOND
M  V30 END CTAB
M  END
> <s_m_entry_id>
298

> <i_f3d_flags>
0

> <r_lp_tautomer_probability>
1

> <r_epik_Ionization_Penalty>
  0.0000

> <r_epik_State_Penalty>
  0.0000

> <i_epik_Tot_Q>
0

> <r_i_docking_score>
-5.71403901642428

> <r_i_glide_gscore>
-5.71403901642428

> <r_i_glide_emodel>
-46.0478945846595

> <s_m_subgroup_title>
nsp13-core1_lib_top-500_pv

> <s_m_subgroupid>
nsp13-core1_lib_top-500_pv

> <b_m_subgroup_collapsed>
0

$$$$
Core_1_EN300-2790168_EN300-2790168
                    3D
 Schrodinger Suite 2023-1.
  0  0  0     0  0            999 V3000
M  V30 BEGIN CTAB
M  V30 COUNTS 45 48 0 0 0
M  V30 BEGIN ATOM
M  V30 1 C  -37.8611 40.5801 -5.2038 0
M  V30 2 N  -38.3639 39.4417 -4.4416 0
M  V30 3 C  -38.7514 38.2840 -5.0342 0
M  V30 4 N  -39.1723 37.2698 -4.1176 0
M  V30 5 C  -39.5512 36.0244 -4.4100 0
M  V30 6 N  -39.8270 35.3250 -3.3104 0
M  V30 7 C  -39.6123 36.2193 -2.2409 0
M  V30 8 C  -39.6740 35.8835 -0.7795 0
M  V30 9 N  -40.5858 34.9778 -0.3472 0
M  V30 10 C  -40.7194 34.6466 1.0720 0
M  V30 11 C  -41.7437 33.5195 1.1651 0
M  V30 12 C  -42.5677 33.6361 -0.1121 0 CFG=1
M  V30 13 C  -41.5877 34.2465 -1.1288 0
M  V30 14 N  -43.0897 32.3307 -0.5021 0
M  V30 15 C  -43.9307 32.0896 -1.5203 0
M  V30 16 C  -44.4124 30.6465 -1.6752 0
M  V30 17 C  -44.1246 30.0886 -3.0366 0
M  V30 18 C  -44.6501 30.3425 -4.2784 0
M  V30 19 C  -44.0574 29.4438 -5.2095 0
M  V30 20 C  -43.1513 28.6821 -4.5308 0
M  V30 21 N  -43.1936 29.0838 -3.2132 0
M  V30 22 O  -44.3376 32.9599 -2.2927 0
M  V30 23 O  -38.9261 36.4624 0.0101 0
M  V30 24 C  -39.2058 37.4370 -2.7580 0
M  V30 25 N  -38.8119 38.6703 -2.2508 0
M  V30 26 N  -38.4212 39.5994 -3.0077 0
M  V30 27 O  -38.7384 38.0557 -6.2458 0
M  V30 28 H  -38.6851 41.1019 -5.6923 0
M  V30 29 H  -37.3457 41.2904 -4.5579 0
M  V30 30 H  -37.1550 40.2618 -5.9726 0
M  V30 31 H  -39.6052 35.6232 -5.4117 0
M  V30 32 H  -41.0751 35.5271 1.6097 0
M  V30 33 H  -39.7663 34.3490 1.5118 0
M  V30 34 H  -42.3547 33.5758 2.0663 0
M  V30 35 H  -41.2153 32.5642 1.1907 0
M  V30 36 H  -43.3926 34.3299 0.0606 0
M  V30 37 H  -41.0827 33.4653 -1.6996 0
M  V30 38 H  -42.1149 34.8951 -1.8302 0
M  V30 39 H  -42.8784 31.5682 0.1321 0
M  V30 40 H  -45.4867 30.6251 -1.4909 0
M  V30 41 H  -43.9611 30.0162 -0.9065 0
M  V30 42 H  -45.3975 31.0821 -4.5124 0
M  V30 43 H  -44.2720 29.3636 -6.2655 0
M  V30 44 H  -42.4932 27.8922 -4.8610 0
M  V30 45 H  -42.6471 28.6609 -2.4696 0
M  V30 END ATOM
M  V30 BEGIN BOND
M  V30 1 1 1 2
M  V30 2 1 1 28
M  V30 3 1 1 29
M  V30 4 1 1 30
M  V30 5 1 2 3
M  V30 6 1 2 26
M  V30 7 1 3 4
M  V30 8 2 3 27
M  V30 9 1 4 5
M  V30 10 1 4 24
M  V30 11 2 5 6
M  V30 12 1 5 31
M  V30 13 1 6 7
M  V30 14 1 7 8
M  V30 15 2 7 24
M  V30 16 1 8 9
M  V30 17 2 8 23
M  V30 18 1 9 10
M  V30 19 1 9 13
M  V30 20 1 10 11
M  V30 21 1 10 32
M  V30 22 1 10 33
M  V30 23 1 11 12
M  V30 24 1 11 34
M  V30 25 1 11 35
M  V30 26 1 12 13
M  V30 27 1 12 14
M  V30 28 1 12 36
M  V30 29 1 13 37
M  V30 30 1 13 38
M  V30 31 1 14 15
M  V30 32 1 14 39
M  V30 33 1 15 16
M  V30 34 2 15 22
M  V30 35 1 16 17
M  V30 36 1 16 40
M  V30 37 1 16 41
M  V30 38 2 17 18
M  V30 39 1 17 21
M  V30 40 1 18 19
M  V30 41 1 18 42
M  V30 42 2 19 20
M  V30 43 1 19 43
M  V30 44 1 20 21
M  V30 45 1 20 44
M  V30 46 1 21 45
M  V30 47 1 24 25
M  V30 48 2 25 26
M  V30 END BOND
M  V30 END CTAB
M  END
> <s_m_entry_id>
303

> <i_f3d_flags>
0

> <r_epik_Ionization_Penalty>
  0.0025

> <r_epik_State_Penalty>
  0.0025

> <i_epik_Tot_Q>
0

> <r_i_docking_score>
-5.71075877219572

> <r_i_glide_gscore>
-5.71325877219572

> <r_i_glide_emodel>
-54.6507846193536

> <s_m_subgroup_title>
nsp13-core1_lib_top-500_pv

> <s_m_subgroupid>
nsp13-core1_lib_top-500_pv

> <b_m_subgroup_collapsed>
0

$$$$
Core_1_EN300-307255_EN300-307255
                    3D
 Schrodinger Suite 2023-1.
  0  0  0     0  0            999 V3000
M  V30 BEGIN CTAB
M  V30 COUNTS 44 47 0 0 0
M  V30 BEGIN ATOM
M  V30 1 C  -45.5722 37.3594 -1.7109 0
M  V30 2 C  -45.0288 35.9698 -1.3865 0
M  V30 3 N  -44.0887 35.6469 -2.4594 0
M  V30 4 C  -43.7898 36.8298 -3.2664 0
M  V30 5 C  -44.5145 38.0075 -2.6068 0 CFG=1
M  V30 6 N  -45.1080 38.8844 -3.6104 0
M  V30 7 C  -45.6035 40.1074 -3.3610 0
M  V30 8 C  -46.2207 40.8356 -4.4924 0
M  V30 9 C  -46.7786 42.0826 -4.5619 0
M  V30 10 C  -47.2392 42.2871 -5.8977 0
M  V30 11 C  -46.9553 41.1579 -6.6172 0
M  V30 12 N  -46.3280 40.2838 -5.7553 0
M  V30 13 O  -45.5693 40.6235 -2.2438 0
M  V30 14 C  -43.5355 34.4394 -2.7019 0
M  V30 15 C  -43.9420 33.2378 -1.8252 0
M  V30 16 C  -43.6810 31.9093 -2.5201 0
M  V30 17 C  -42.5930 31.0975 -2.1223 0
M  V30 18 C  -42.3532 29.8846 -2.7996 0
M  V30 19 C  -43.1983 29.5185 -3.8670 0
M  V30 20 C  -43.2913 28.4265 -4.7914 0
M  V30 21 C  -44.3609 28.6840 -5.6054 0
M  V30 22 N  -44.9479 29.8756 -5.2103 0
M  V30 23 C  -44.2581 30.4201 -4.1507 0
M  V30 24 N  -44.5499 31.5841 -3.5092 0
M  V30 25 O  -42.7173 34.2837 -3.6103 0
M  V30 26 H  -46.5116 37.2512 -2.2559 0
M  V30 27 H  -45.7821 37.9486 -0.8160 0
M  V30 28 H  -45.8511 35.2607 -1.3022 0
M  V30 29 H  -44.4909 35.9817 -0.4380 0
M  V30 30 H  -42.7146 37.0129 -3.3176 0
M  V30 31 H  -44.1396 36.6635 -4.2861 0
M  V30 32 H  -43.8058 38.5619 -1.9862 0
M  V30 33 H  -45.1515 38.5282 -4.5594 0
M  V30 34 H  -46.8539 42.7751 -3.7340 0
M  V30 35 H  -47.7333 43.1650 -6.2868 0
M  V30 36 H  -47.1390 40.8961 -7.6500 0
M  V30 37 H  -45.9944 39.3569 -6.0117 0
M  V30 38 H  -45.0010 33.2696 -1.5753 0
M  V30 39 H  -43.3908 33.2829 -0.8857 0
M  V30 40 H  -41.9527 31.3975 -1.3053 0
M  V30 41 H  -41.5513 29.2287 -2.4999 0
M  V30 42 H  -42.6306 27.5760 -4.8265 0
M  V30 43 H  -44.7511 28.1069 -6.4260 0
M  V30 44 H  -45.7333 30.2986 -5.6862 0
M  V30 END ATOM
M  V30 BEGIN BOND
M  V30 1 1 1 2
M  V30 2 1 1 5
M  V30 3 1 1 26
M  V30 4 1 1 27
M  V30 5 1 2 3
M  V30 6 1 2 28
M  V30 7 1 2 29
M  V30 8 1 3 4
M  V30 9 1 3 14
M  V30 10 1 4 5
M  V30 11 1 4 30
M  V30 12 1 4 31
M  V30 13 1 5 6
M  V30 14 1 5 32
M  V30 15 1 6 7
M  V30 16 1 6 33
M  V30 17 1 7 8
M  V30 18 2 7 13
M  V30 19 2 8 9
M  V30 20 1 8 12
M  V30 21 1 9 10
M  V30 22 1 9 34
M  V30 23 2 10 11
M  V30 24 1 10 35
M  V30 25 1 11 12
M  V30 26 1 11 36
M  V30 27 1 12 37
M  V30 28 1 14 15
M  V30 29 2 14 25
M  V30 30 1 15 16
M  V30 31 1 15 38
M  V30 32 1 15 39
M  V30 33 2 16 17
M  V30 34 1 16 24
M  V30 35 1 17 18
M  V30 36 1 17 40
M  V30 37 2 18 19
M  V30 38 1 18 41
M  V30 39 1 19 20
M  V30 40 1 19 23
M  V30 41 2 20 21
M  V30 42 1 20 42
M  V30 43 1 21 22
M  V30 44 1 21 43
M  V30 45 1 22 23
M  V30 46 1 22 44
M  V30 47 2 23 24
M  V30 END BOND
M  V30 END CTAB
M  END
> <s_m_entry_id>
322

> <i_f3d_flags>
0

> <r_lp_tautomer_probability>
0.999998432528457

> <r_epik_Ionization_Penalty>
  0.0017

> <r_epik_State_Penalty>
  0.0017

> <i_epik_Tot_Q>
0

> <r_i_docking_score>
-5.69719468789876

> <r_i_glide_gscore>
-5.69889468789876

> <r_i_glide_emodel>
-54.3990853276431

> <s_m_subgroup_title>
nsp13-core1_lib_top-500_pv

> <s_m_subgroupid>
nsp13-core1_lib_top-500_pv

> <b_m_subgroup_collapsed>
0

$$$$
Core_1_EN300-80230_EN300-80230
                    3D
 Schrodinger Suite 2023-1.
  0  0  0     0  0            999 V3000
M  V30 BEGIN CTAB
M  V30 COUNTS 38 40 0 0 0
M  V30 BEGIN ATOM
M  V30 1 C  -42.7806 34.6280 -0.3154 0
M  V30 2 C  -43.8017 33.5268 -0.0436 0
M  V30 3 N  -43.4903 32.4683 -0.9990 0
M  V30 4 C  -42.0940 32.5649 -1.4301 0
M  V30 5 C  -41.5554 33.8845 -0.8469 0 CFG=1
M  V30 6 N  -40.7512 34.6839 -1.7741 0
M  V30 7 C  -41.0439 35.0623 -3.0298 0
M  V30 8 C  -39.9829 35.8973 -3.7445 0
M  V30 9 S  -39.9182 37.6073 -3.1231 0
M  V30 10 C  -38.9462 38.3571 -4.3878 0
M  V30 11 N  -37.9510 39.2094 -4.1719 0
M  V30 12 C  -37.5684 39.4841 -5.4548 0
M  V30 13 N  -38.2660 38.8720 -6.4102 0
M  V30 14 N  -39.1513 38.1515 -5.6882 0
M  V30 15 O  -42.0899 34.7668 -3.6101 0
M  V30 16 C  -44.4289 31.6316 -1.4937 0
M  V30 17 C  -44.0417 30.7293 -2.6499 0
M  V30 18 N  -43.0605 29.8495 -2.4535 0
M  V30 19 C  -42.7508 29.0273 -3.4724 0
M  V30 20 C  -43.4205 29.0940 -4.7062 0
M  V30 21 C  -44.4317 30.0614 -4.8097 0
M  V30 22 N  -44.7514 30.8689 -3.7776 0
M  V30 23 O  -45.6070 31.6345 -1.1294 0
M  V30 24 H  -42.5590 35.2213 0.5721 0
M  V30 25 H  -43.1826 35.3030 -1.0728 0
M  V30 26 H  -43.6830 33.1276 0.9654 0
M  V30 27 H  -44.8210 33.9053 -0.1366 0
M  V30 28 H  -42.0209 32.5155 -2.5162 0
M  V30 29 H  -41.5286 31.7193 -1.0354 0
M  V30 30 H  -40.9199 33.6369 0.0050 0
M  V30 31 H  -39.8678 35.0090 -1.4087 0
M  V30 32 H  -40.2003 35.8839 -4.8103 0
M  V30 33 H  -39.0031 35.4344 -3.6213 0
M  V30 34 H  -36.7527 40.1529 -5.6891 0
M  V30 35 H  -39.8898 37.5860 -6.0935 0
M  V30 36 H  -41.9723 28.2985 -3.2942 0
M  V30 37 H  -43.1729 28.4343 -5.5251 0
M  V30 38 H  -45.0053 30.1755 -5.7166 0
M  V30 END ATOM
M  V30 BEGIN BOND
M  V30 1 1 1 2
M  V30 2 1 1 5
M  V30 3 1 1 24
M  V30 4 1 1 25
M  V30 5 1 2 3
M  V30 6 1 2 26
M  V30 7 1 2 27
M  V30 8 1 3 4
M  V30 9 1 3 16
M  V30 10 1 4 5
M  V30 11 1 4 28
M  V30 12 1 4 29
M  V30 13 1 5 6
M  V30 14 1 5 30
M  V30 15 1 6 7
M  V30 16 1 6 31
M  V30 17 1 7 8
M  V30 18 2 7 15
M  V30 19 1 8 9
M  V30 20 1 8 32
M  V30 21 1 8 33
M  V30 22 1 9 10
M  V30 23 2 10 11
M  V30 24 1 10 14
M  V30 25 1 11 12
M  V30 26 2 12 13
M  V30 27 1 12 34
M  V30 28 1 13 14
M  V30 29 1 14 35
M  V30 30 1 16 17
M  V30 31 2 16 23
M  V30 32 2 17 18
M  V30 33 1 17 22
M  V30 34 1 18 19
M  V30 35 2 19 20
M  V30 36 1 19 36
M  V30 37 1 20 21
M  V30 38 1 20 37
M  V30 39 2 21 22
M  V30 40 1 21 38
M  V30 END BOND
M  V30 END CTAB
M  END
> <s_m_entry_id>
328

> <i_f3d_flags>
0

> <r_lp_tautomer_probability>
0.5726006379666

> <r_epik_Ionization_Penalty>
  0.0520

> <r_epik_State_Penalty>
  0.3304

> <i_epik_Tot_Q>
0

> <r_i_docking_score>
-5.69240939489674

> <r_i_glide_gscore>
-6.02280939489674

> <r_i_glide_emodel>
-57.5131780240417

> <s_m_subgroup_title>
nsp13-core1_lib_top-500_pv

> <s_m_subgroupid>
nsp13-core1_lib_top-500_pv

> <b_m_subgroup_collapsed>
0

$$$$
Core_1_EN300-322879_EN300-322879
                    3D
 Schrodinger Suite 2023-1.
  0  0  0     0  0            999 V3000
M  V30 BEGIN CTAB
M  V30 COUNTS 43 46 0 0 0
M  V30 BEGIN ATOM
M  V30 1 C  -36.8879 40.3177 -3.8731 0
M  V30 2 C  -37.9153 39.7859 -4.8344 0
M  V30 3 C  -38.1022 40.1780 -6.1929 0
M  V30 4 N  -39.0734 39.5151 -6.8103 0
M  V30 5 N  -39.5513 38.6846 -5.8668 0
M  V30 6 C  -38.8856 38.8301 -4.6755 0
M  V30 7 C  -39.1520 38.0422 -3.4521 0
M  V30 8 N  -39.9510 36.9713 -3.5991 0
M  V30 9 C  -40.0525 35.8738 -2.6397 0 CFG=1
M  V30 10 C  -40.4386 36.2915 -1.2200 0
M  V30 11 C  -41.1103 35.0528 -0.6368 0
M  V30 12 N  -41.6543 34.3264 -1.7784 0
M  V30 13 C  -41.1539 34.8855 -3.0355 0
M  V30 14 C  -42.4541 33.2488 -1.6389 0
M  V30 15 C  -43.0567 32.6908 -2.8831 0
M  V30 16 N  -43.7895 33.3464 -3.7915 0
M  V30 17 C  -44.1879 32.4215 -4.7402 0
M  V30 18 C  -43.7301 31.1839 -4.4060 0
M  V30 19 C  -43.8319 29.8940 -4.9822 0
M  V30 20 C  -43.1513 28.8592 -4.3983 0
M  V30 21 C  -42.3929 29.0805 -3.2264 0
M  V30 22 C  -42.3516 30.3129 -2.6240 0
M  V30 23 N  -42.9897 31.3565 -3.2192 0
M  V30 24 O  -42.6837 32.7165 -0.5534 0
M  V30 25 O  -38.6108 38.3294 -2.3852 0
M  V30 26 H  -37.3450 40.7158 -2.9680 0
M  V30 27 H  -36.1846 39.5429 -3.5669 0
M  V30 28 H  -36.3001 41.1261 -4.3120 0
M  V30 29 H  -37.5516 40.9214 -6.7536 0
M  V30 30 H  -40.3375 38.0589 -6.0342 0
M  V30 31 H  -40.4099 36.8373 -4.4909 0
M  V30 32 H  -39.0977 35.3469 -2.6051 0
M  V30 33 H  -39.5837 36.6142 -0.6222 0
M  V30 34 H  -41.1561 37.1139 -1.2516 0
M  V30 35 H  -40.3778 34.4217 -0.1296 0
M  V30 36 H  -41.8854 35.3192 0.0848 0
M  V30 37 H  -41.9724 35.4003 -3.5409 0
M  V30 38 H  -40.7680 34.1126 -3.7026 0
M  V30 39 H  -44.7517 32.6838 -5.6099 0
M  V30 40 H  -44.3992 29.7477 -5.8962 0
M  V30 41 H  -43.1773 27.8740 -4.8515 0
M  V30 42 H  -41.8298 28.2563 -2.8103 0
M  V30 43 H  -41.8063 30.5080 -1.7055 0
M  V30 END ATOM
M  V30 BEGIN BOND
M  V30 1 1 1 26
M  V30 2 1 1 27
M  V30 3 1 1 28
M  V30 4 1 1 2
M  V30 5 2 2 6
M  V30 6 1 2 3
M  V30 7 1 3 29
M  V30 8 2 3 4
M  V30 9 1 4 5
M  V30 10 1 5 30
M  V30 11 1 5 6
M  V30 12 1 6 7
M  V30 13 1 7 8
M  V30 14 2 7 25
M  V30 15 1 8 9
M  V30 16 1 8 31
M  V30 17 1 9 10
M  V30 18 1 9 13
M  V30 19 1 9 32
M  V30 20 1 10 11
M  V30 21 1 10 33
M  V30 22 1 10 34
M  V30 23 1 11 12
M  V30 24 1 11 35
M  V30 25 1 11 36
M  V30 26 1 12 13
M  V30 27 1 12 14
M  V30 28 1 13 37
M  V30 29 1 13 38
M  V30 30 1 14 15
M  V30 31 2 14 24
M  V30 32 2 15 16
M  V30 33 1 15 23
M  V30 34 1 16 17
M  V30 35 2 17 18
M  V30 36 1 17 39
M  V30 37 1 18 19
M  V30 38 1 18 23
M  V30 39 2 19 20
M  V30 40 1 19 40
M  V30 41 1 20 21
M  V30 42 1 20 41
M  V30 43 2 21 22
M  V30 44 1 21 42
M  V30 45 1 22 23
M  V30 46 1 22 43
M  V30 END BOND
M  V30 END CTAB
M  END
> <s_m_entry_id>
329

> <i_f3d_flags>
0

> <r_lp_tautomer_probability>
0.5

> <r_epik_Ionization_Penalty>
  0.0099

> <r_epik_State_Penalty>
  0.4204

> <i_epik_Tot_Q>
0

> <r_i_docking_score>
-5.6916583000972

> <r_i_glide_gscore>
-6.1120583000972

> <r_i_glide_emodel>
-53.4102428619458

> <s_m_subgroup_title>
nsp13-core1_lib_top-500_pv

> <s_m_subgroupid>
nsp13-core1_lib_top-500_pv

> <b_m_subgroup_collapsed>
0

$$$$
Core_1_EN300-26871972_EN300-26871972
                    3D
 Schrodinger Suite 2023-1.
  0  0  0     0  0            999 V3000
M  V30 BEGIN CTAB
M  V30 COUNTS 52 56 0 0 0
M  V30 BEGIN ATOM
M  V30 1 C  -42.3661 33.7234 3.1577 0
M  V30 2 C  -41.1121 34.5804 3.3256 0
M  V30 3 N  -40.7699 35.0791 1.9960 0
M  V30 4 C  -41.8292 34.7352 1.0424 0
M  V30 5 C  -43.0074 34.1877 1.8521 0 CFG=1
M  V30 6 N  -43.6769 33.0838 1.1709 0
M  V30 7 C  -44.4145 33.1698 0.0520 0
M  V30 8 C  -45.1041 31.8828 -0.4148 0
M  V30 9 C  -44.3861 31.1907 -1.5678 0
M  V30 10 C  -43.0930 30.6497 -1.3861 0
M  V30 11 C  -42.5149 29.8836 -2.4177 0
M  V30 12 C  -43.2415 29.6497 -3.6024 0
M  V30 13 C  -43.0644 28.8943 -4.8106 0
M  V30 14 C  -44.1882 29.0838 -5.5692 0
M  V30 15 N  -45.0379 29.9460 -4.8995 0
M  V30 16 C  -44.5069 30.2839 -3.6716 0
M  V30 17 N  -45.1066 31.0418 -2.7087 0
M  V30 18 O  -44.5800 34.2192 -0.5707 0
M  V30 19 C  -39.6556 35.8184 1.7710 0
M  V30 20 C  -39.4661 36.4550 0.4193 0
M  V30 21 C  -39.1008 37.8257 0.3353 0
M  V30 22 C  -38.9740 38.4784 -0.9139 0
M  V30 23 C  -39.2329 37.7437 -2.0854 0
M  V30 24 C  -39.2310 38.2842 -3.5016 0
M  V30 25 N  -39.5513 37.1679 -4.4097 0 CFG=1
M  V30 26 S  -39.9508 35.7230 -3.5564 0
M  V30 27 C  -39.5536 36.3932 -1.9908 0
M  V30 28 C  -39.6281 35.7118 -0.7730 0
M  V30 29 O  -38.9793 34.6838 -3.9095 0
M  V30 30 O  -41.4016 35.4851 -3.6104 0
M  V30 31 O  -38.8379 36.0597 2.6598 0
M  V30 32 H  -43.0439 33.7916 4.0088 0
M  V30 33 H  -42.0526 32.6836 3.0724 0
M  V30 34 H  -41.3156 35.4277 3.9832 0
M  V30 35 H  -40.2959 34.0021 3.7627 0
M  V30 36 H  -41.4621 33.9511 0.3810 0
M  V30 37 H  -42.1395 35.5859 0.4334 0
M  V30 38 H  -43.7166 34.9902 2.0610 0
M  V30 39 H  -43.5514 32.1527 1.5903 0
M  V30 40 H  -46.1294 32.1239 -0.6997 0
M  V30 41 H  -45.1737 31.1800 0.4168 0
M  V30 42 H  -42.5708 30.7774 -0.4471 0
M  V30 43 H  -41.5521 29.4162 -2.2854 0
M  V30 44 H  -42.2123 28.2840 -5.0641 0
M  V30 45 H  -44.4352 28.6860 -6.5429 0
M  V30 46 H  -45.9060 30.2757 -5.2988 0
M  V30 47 H  -38.9380 38.3928 1.2418 0
M  V30 48 H  -38.7153 39.5264 -0.9642 0
M  V30 49 H  -39.9793 39.0704 -3.6048 0
M  V30 50 H  -38.2533 38.6953 -3.7538 0
M  V30 51 H  -40.3111 37.3941 -5.0623 0
M  V30 52 H  -39.8577 34.6597 -0.7747 0
M  V30 END ATOM
M  V30 BEGIN BOND
M  V30 1 1 1 2
M  V30 2 1 1 5
M  V30 3 1 1 32
M  V30 4 1 1 33
M  V30 5 1 2 3
M  V30 6 1 2 34
M  V30 7 1 2 35
M  V30 8 1 3 4
M  V30 9 1 3 19
M  V30 10 1 4 5
M  V30 11 1 4 36
M  V30 12 1 4 37
M  V30 13 1 5 6
M  V30 14 1 5 38
M  V30 15 1 6 7
M  V30 16 1 6 39
M  V30 17 1 7 8
M  V30 18 2 7 18
M  V30 19 1 8 9
M  V30 20 1 8 40
M  V30 21 1 8 41
M  V30 22 2 9 10
M  V30 23 1 9 17
M  V30 24 1 10 11
M  V30 25 1 10 42
M  V30 26 2 11 12
M  V30 27 1 11 43
M  V30 28 1 12 13
M  V30 29 1 12 16
M  V30 30 2 13 14
M  V30 31 1 13 44
M  V30 32 1 14 15
M  V30 33 1 14 45
M  V30 34 1 15 16
M  V30 35 1 15 46
M  V30 36 2 16 17
M  V30 37 1 19 20
M  V30 38 2 19 31
M  V30 39 2 20 21
M  V30 40 1 20 28
M  V30 41 1 21 22
M  V30 42 1 21 47
M  V30 43 2 22 23
M  V30 44 1 22 48
M  V30 45 1 23 24
M  V30 46 1 23 27
M  V30 47 1 24 25
M  V30 48 1 24 49
M  V30 49 1 24 50
M  V30 50 1 25 26
M  V30 51 1 25 51
M  V30 52 1 26 27
M  V30 53 2 26 29
M  V30 54 2 26 30
M  V30 55 2 27 28
M  V30 56 1 28 52
M  V30 END BOND
M  V30 END CTAB
M  END
> <s_m_entry_id>
330

> <i_f3d_flags>
0

> <r_lp_tautomer_probability>
0.999998432528457

> <r_epik_Ionization_Penalty>
  0.0840

> <r_epik_State_Penalty>
  0.0826

> <i_epik_Tot_Q>
0

> <r_i_docking_score>
-5.6905996078043

> <r_i_glide_gscore>
-5.7731996078043

> <r_i_glide_emodel>
-53.9071028616566

> <s_m_subgroup_title>
nsp13-core1_lib_top-500_pv

> <s_m_subgroupid>
nsp13-core1_lib_top-500_pv

> <b_m_subgroup_collapsed>
0

$$$$
Core_1_EN300-26873_EN300-26873
                    3D
 Schrodinger Suite 2023-1.
  0  0  0     0  0            999 V3000
M  V30 BEGIN CTAB
M  V30 COUNTS 39 42 0 0 0
M  V30 BEGIN ATOM
M  V30 1 C  -40.7376 37.5685 -1.7543 0
M  V30 2 C  -42.1677 37.1150 -2.0272 0
M  V30 3 N  -42.0610 35.7713 -2.5903 0
M  V30 4 C  -40.6874 35.5103 -3.0317 0
M  V30 5 C  -39.8954 36.8093 -2.7775 0 CFG=1
M  V30 6 N  -39.7286 37.5778 -4.0103 0
M  V30 7 C  -38.9476 38.6613 -4.1711 0
M  V30 8 C  -39.0325 39.3445 -5.4823 0
M  V30 9 C  -38.2277 40.3603 -5.9113 0
M  V30 10 C  -38.7790 40.6558 -7.1938 0
M  V30 11 N  -39.8045 39.8908 -7.5347 0
M  V30 12 N  -39.9514 39.0838 -6.4681 0
M  V30 13 O  -38.3514 41.5788 -8.0947 0
M  V30 14 O  -38.1980 39.0838 -3.2919 0
M  V30 15 C  -43.1530 35.0054 -2.8104 0
M  V30 16 C  -42.9966 33.5783 -3.1799 0
M  V30 17 C  -42.1340 32.5831 -2.7709 0
M  V30 18 C  -42.6111 31.3370 -3.3210 0
M  V30 19 C  -42.3512 29.9347 -3.3446 0
M  V30 20 C  -43.2634 29.2494 -4.1179 0
M  V30 21 S  -44.4843 30.3020 -4.8102 0
M  V30 22 C  -43.7023 31.6519 -4.0570 0
M  V30 23 N  -43.9518 32.9969 -3.9951 0
M  V30 24 O  -44.2938 35.4633 -2.7272 0
M  V30 25 H  -40.4482 37.2526 -0.7510 0
M  V30 26 H  -40.6224 38.6523 -1.7958 0
M  V30 27 H  -42.7706 37.1319 -1.1178 0
M  V30 28 H  -42.6413 37.7712 -2.7595 0
M  V30 29 H  -40.6481 35.1937 -4.0756 0
M  V30 30 H  -40.2680 34.7074 -2.4253 0
M  V30 31 H  -38.9057 36.5815 -2.3771 0
M  V30 32 H  -40.3198 37.3026 -4.7844 0
M  V30 33 H  -37.3967 40.8168 -5.3939 0
M  V30 34 H  -37.4158 41.7041 -8.0103 0
M  V30 35 H  -40.6945 38.3891 -6.4110 0
M  V30 36 H  -41.2912 32.6503 -2.0987 0
M  V30 37 H  -41.5330 29.4777 -2.8103 0
M  V30 38 H  -43.2927 28.1875 -4.3114 0
M  V30 39 H  -44.7320 33.4851 -4.4117 0
M  V30 END ATOM
M  V30 BEGIN BOND
M  V30 1 1 1 2
M  V30 2 1 1 5
M  V30 3 1 1 25
M  V30 4 1 1 26
M  V30 5 1 2 3
M  V30 6 1 2 27
M  V30 7 1 2 28
M  V30 8 1 3 4
M  V30 9 1 3 15
M  V30 10 1 4 5
M  V30 11 1 4 29
M  V30 12 1 4 30
M  V30 13 1 5 6
M  V30 14 1 5 31
M  V30 15 1 6 7
M  V30 16 1 6 32
M  V30 17 2 7 14
M  V30 18 1 7 8
M  V30 19 2 8 9
M  V30 20 1 8 12
M  V30 21 1 9 33
M  V30 22 1 9 10
M  V30 23 2 10 11
M  V30 24 1 10 13
M  V30 25 1 11 12
M  V30 26 1 12 35
M  V30 27 1 13 34
M  V30 28 1 15 16
M  V30 29 2 15 24
M  V30 30 2 16 17
M  V30 31 1 16 23
M  V30 32 1 17 18
M  V30 33 1 17 36
M  V30 34 1 18 19
M  V30 35 2 18 22
M  V30 36 2 19 20
M  V30 37 1 19 37
M  V30 38 1 20 21
M  V30 39 1 20 38
M  V30 40 1 21 22
M  V30 41 1 22 23
M  V30 42 1 23 39
M  V30 END BOND
M  V30 END CTAB
M  END
> <s_m_entry_id>
341

> <i_f3d_flags>
0

> <r_lp_tautomer_probability>
0.966084542645576

> <r_epik_Ionization_Penalty>
  0.2476

> <r_epik_State_Penalty>
  0.3542

> <i_epik_Tot_Q>
0

> <r_i_docking_score>
-5.68055856136022

> <r_i_glide_gscore>
-6.03475856136022

> <r_i_glide_emodel>
-59.5721624731301

> <s_m_subgroup_title>
nsp13-core1_lib_top-500_pv

> <s_m_subgroupid>
nsp13-core1_lib_top-500_pv

> <b_m_subgroup_collapsed>
0

$$$$
Core_1_EN300-196668_EN300-196668
                    3D
 Schrodinger Suite 2023-1.
  0  0  0     0  0            999 V3000
M  V30 BEGIN CTAB
M  V30 COUNTS 46 49 0 0 0
M  V30 BEGIN ATOM
M  V30 1 C  -39.7107 42.2219 -7.6024 0
M  V30 2 C  -38.3613 41.5326 -7.3720 0
M  V30 3 C  -38.4718 40.3557 -6.4643 0
M  V30 4 N  -38.6290 39.0838 -6.8100 0
M  V30 5 C  -38.7510 38.4033 -5.6089 0
M  V30 6 C  -38.7016 39.3099 -4.5765 0
M  V30 7 C  -38.7469 39.2131 -3.1019 0
M  V30 8 N  -39.4998 38.2561 -2.5144 0
M  V30 9 C  -39.6616 38.1974 -1.0626 0
M  V30 10 C  -40.5344 36.9807 -0.7724 0
M  V30 11 C  -41.2674 36.7001 -2.0802 0 CFG=1
M  V30 12 C  -40.3268 37.2392 -3.1672 0
M  V30 13 N  -41.5322 35.2731 -2.2150 0
M  V30 14 C  -42.5559 34.7211 -2.8807 0
M  V30 15 C  -42.6567 33.2275 -2.7726 0
M  V30 16 C  -42.2585 32.5596 -1.5899 0
M  V30 17 C  -42.3514 31.1603 -1.5018 0
M  V30 18 C  -42.8442 30.4335 -2.5967 0
M  V30 19 C  -43.2917 31.0709 -3.7896 0
M  V30 20 C  -43.7555 30.0523 -4.6908 0
M  V30 21 C  -43.5441 28.8510 -4.0684 0
M  V30 22 N  -43.0131 29.0838 -2.8104 0
M  V30 23 C  -43.1960 32.4805 -3.8461 0
M  V30 24 O  -43.3355 35.3532 -3.5926 0
M  V30 25 O  -38.1329 40.0492 -2.4389 0
M  V30 26 O  -38.5050 40.5539 -5.1235 0
M  V30 27 H  -39.6069 43.0700 -8.2785 0
M  V30 28 H  -40.1254 42.5912 -6.6634 0
M  V30 29 H  -40.4345 41.5320 -8.0388 0
M  V30 30 H  -37.9516 41.2003 -8.3259 0
M  V30 31 H  -37.6437 42.2356 -6.9465 0
M  V30 32 H  -38.8690 37.3298 -5.5871 0
M  V30 33 H  -38.7000 38.1286 -0.5507 0
M  V30 34 H  -40.1578 39.1083 -0.7229 0
M  V30 35 H  -39.8878 36.1413 -0.5096 0
M  V30 36 H  -41.2161 37.1447 0.0634 0
M  V30 37 H  -42.1971 37.2731 -2.0934 0
M  V30 38 H  -40.8942 37.6420 -4.0086 0
M  V30 39 H  -39.6731 36.4515 -3.5443 0
M  V30 40 H  -40.9214 34.6475 -1.7112 0
M  V30 41 H  -41.8830 33.1069 -0.7369 0
M  V30 42 H  -42.0439 30.6522 -0.5980 0
M  V30 43 H  -44.1635 30.2084 -5.6775 0
M  V30 44 H  -43.7325 27.8467 -4.4189 0
M  V30 45 H  -42.7506 28.3507 -2.1519 0
M  V30 46 H  -43.5286 32.9862 -4.7404 0
M  V30 END ATOM
M  V30 BEGIN BOND
M  V30 1 1 1 2
M  V30 2 1 1 27
M  V30 3 1 1 28
M  V30 4 1 1 29
M  V30 5 1 2 3
M  V30 6 1 2 30
M  V30 7 1 2 31
M  V30 8 2 3 4
M  V30 9 1 3 26
M  V30 10 1 4 5
M  V30 11 2 5 6
M  V30 12 1 5 32
M  V30 13 1 6 7
M  V30 14 1 6 26
M  V30 15 1 7 8
M  V30 16 2 7 25
M  V30 17 1 8 9
M  V30 18 1 8 12
M  V30 19 1 9 10
M  V30 20 1 9 33
M  V30 21 1 9 34
M  V30 22 1 10 11
M  V30 23 1 10 35
M  V30 24 1 10 36
M  V30 25 1 11 12
M  V30 26 1 11 13
M  V30 27 1 11 37
M  V30 28 1 12 38
M  V30 29 1 12 39
M  V30 30 1 13 14
M  V30 31 1 13 40
M  V30 32 1 14 15
M  V30 33 2 14 24
M  V30 34 2 15 16
M  V30 35 1 15 23
M  V30 36 1 16 17
M  V30 37 1 16 41
M  V30 38 2 17 18
M  V30 39 1 17 42
M  V30 40 1 18 19
M  V30 41 1 18 22
M  V30 42 1 19 20
M  V30 43 2 19 23
M  V30 44 2 20 21
M  V30 45 1 20 43
M  V30 46 1 21 22
M  V30 47 1 21 44
M  V30 48 1 22 45
M  V30 49 1 23 46
M  V30 END BOND
M  V30 END CTAB
M  END
> <s_m_entry_id>
343

> <i_f3d_flags>
0

> <r_lp_tautomer_probability>
1

> <r_epik_Ionization_Penalty>
  0.0000

> <r_epik_State_Penalty>
  0.0000

> <i_epik_Tot_Q>
0

> <r_i_docking_score>
-5.67876152275532

> <r_i_glide_gscore>
-5.67876152275532

> <r_i_glide_emodel>
-50.3577765887408

> <s_m_subgroup_title>
nsp13-core1_lib_top-500_pv

> <s_m_subgroupid>
nsp13-core1_lib_top-500_pv

> <b_m_subgroup_collapsed>
0

$$$$
Core_1_EN300-34277_EN300-34277
                    3D
 Schrodinger Suite 2023-1.
  0  0  0     0  0            999 V3000
M  V30 BEGIN CTAB
M  V30 COUNTS 45 48 0 0 0
M  V30 BEGIN ATOM
M  V30 1 C  -39.9928 34.9087 -3.5182 0
M  V30 2 C  -39.6958 36.3993 -3.4887 0
M  V30 3 N  -40.7401 37.0166 -2.6763 0
M  V30 4 C  -41.6018 35.9953 -2.0800 0
M  V30 5 C  -40.8250 34.6794 -2.2588 0 CFG=1
M  V30 6 N  -41.6165 33.4509 -2.3268 0
M  V30 7 C  -42.5871 33.1446 -3.2080 0
M  V30 8 C  -42.8992 31.6870 -3.3248 0
M  V30 9 C  -43.9455 31.2174 -4.2923 0
M  V30 10 C  -43.9695 29.7690 -4.5644 0
M  V30 11 C  -43.1936 28.9672 -3.8194 0
M  V30 12 N  -42.3776 29.4761 -2.8085 0
M  V30 13 N  -42.2289 30.8252 -2.6186 0
M  V30 14 O  -44.7514 31.9797 -4.8100 0
M  V30 15 O  -43.1147 33.9886 -3.9312 0
M  V30 16 C  -40.8553 38.3383 -2.4193 0
M  V30 17 C  -39.7286 39.2999 -2.8468 0
M  V30 18 N  -39.5968 39.4282 -4.2890 0
M  V30 19 C  -38.5108 39.1284 -5.0324 0
M  V30 20 N  -38.6124 39.2723 -6.3502 0
M  V30 21 C  -39.9027 39.7581 -6.4677 0
M  V30 22 C  -40.6304 40.1165 -7.6179 0
M  V30 23 C  -41.9513 40.6002 -7.5132 0
M  V30 24 C  -42.5666 40.7216 -6.2496 0
M  V30 25 C  -41.8623 40.3622 -5.0839 0
M  V30 26 C  -40.5434 39.8834 -5.1996 0
M  V30 27 O  -41.8104 38.8011 -1.7964 0
M  V30 28 H  -40.5826 34.6992 -4.4110 0
M  V30 29 H  -39.0916 34.2982 -3.5733 0
M  V30 30 H  -39.6754 36.7849 -4.5070 0
M  V30 31 H  -38.7375 36.5857 -3.0151 0
M  V30 32 H  -41.7993 36.1925 -1.0249 0
M  V30 33 H  -42.5565 36.0105 -2.6046 0
M  V30 34 H  -40.1454 34.5862 -1.4108 0
M  V30 35 H  -41.2801 32.6814 -1.7621 0
M  V30 36 H  -44.6042 29.3845 -5.3503 0
M  V30 37 H  -43.1394 27.8939 -3.9343 0
M  V30 38 H  -41.9414 28.8557 -2.1260 0
M  V30 39 H  -38.7809 38.9640 -2.4216 0
M  V30 40 H  -39.9220 40.2911 -2.4353 0
M  V30 41 H  -37.6025 38.7529 -4.5818 0
M  V30 42 H  -40.1547 40.0027 -8.5767 0
M  V30 43 H  -42.4990 40.8758 -8.4030 0
M  V30 44 H  -43.5825 41.0818 -6.1725 0
M  V30 45 H  -42.3322 40.4369 -4.1135 0
M  V30 END ATOM
M  V30 BEGIN BOND
M  V30 1 1 1 2
M  V30 2 1 1 5
M  V30 3 1 1 28
M  V30 4 1 1 29
M  V30 5 1 2 3
M  V30 6 1 2 30
M  V30 7 1 2 31
M  V30 8 1 3 4
M  V30 9 1 3 16
M  V30 10 1 4 5
M  V30 11 1 4 32
M  V30 12 1 4 33
M  V30 13 1 5 6
M  V30 14 1 5 34
M  V30 15 1 6 7
M  V30 16 1 6 35
M  V30 17 1 7 8
M  V30 18 2 7 15
M  V30 19 1 8 9
M  V30 20 2 8 13
M  V30 21 1 9 10
M  V30 22 2 9 14
M  V30 23 2 10 11
M  V30 24 1 10 36
M  V30 25 1 11 12
M  V30 26 1 11 37
M  V30 27 1 12 13
M  V30 28 1 12 38
M  V30 29 1 16 17
M  V30 30 2 16 27
M  V30 31 1 17 18
M  V30 32 1 17 39
M  V30 33 1 17 40
M  V30 34 1 18 19
M  V30 35 1 18 26
M  V30 36 2 19 20
M  V30 37 1 19 41
M  V30 38 1 20 21
M  V30 39 2 21 22
M  V30 40 1 21 26
M  V30 41 1 22 23
M  V30 42 1 22 42
M  V30 43 2 23 24
M  V30 44 1 23 43
M  V30 45 1 24 25
M  V30 46 1 24 44
M  V30 47 2 25 26
M  V30 48 1 25 45
M  V30 END BOND
M  V30 END CTAB
M  END
> <s_m_entry_id>
349

> <i_f3d_flags>
0

> <r_lp_tautomer_probability>
0.999746388232414

> <r_epik_Ionization_Penalty>
  0.5038

> <r_epik_State_Penalty>
  0.1619

> <i_epik_Tot_Q>
0

> <r_i_docking_score>
-5.67710933898804

> <r_i_glide_gscore>
-5.83900933898804

> <r_i_glide_emodel>
-55.5410563002419

> <s_m_subgroup_title>
nsp13-core1_lib_top-500_pv

> <s_m_subgroupid>
nsp13-core1_lib_top-500_pv

> <b_m_subgroup_collapsed>
0

$$$$
Core_1_EN300-255776_EN300-255776
                    3D
 Schrodinger Suite 2023-1.
  0  0  0     0  0            999 V3000
M  V30 BEGIN CTAB
M  V30 COUNTS 56 59 0 0 0
M  V30 BEGIN ATOM
M  V30 1 C  -37.3893 39.5550 -5.2015 0
M  V30 2 C  -37.6622 39.0826 -6.6234 0
M  V30 3 C  -38.7492 39.9911 -7.2105 0
M  V30 4 C  -40.0691 39.7301 -6.4709 0 CFG=1
M  V30 5 C  -39.9621 39.9768 -4.9370 0 CFG=2
M  V30 6 C  -38.6485 39.3549 -4.3528 0
M  V30 7 N  -41.2193 39.4854 -4.2693 0 CHG=1 CFG=2
M  V30 8 C  -42.4233 40.2646 -4.6817 0
M  V30 9 C  -42.7492 40.1240 -6.1726 0
M  V30 10 S  -41.3946 40.7205 -7.2087 0
M  V30 11 C  -41.1670 39.3585 -2.7817 0
M  V30 12 C  -42.0366 38.2083 -2.2486 0
M  V30 13 N  -41.5522 36.9485 -2.2943 0
M  V30 14 C  -40.3267 36.5526 -2.9765 0
M  V30 15 C  -40.2630 35.0371 -2.9506 0
M  V30 16 C  -41.2185 34.6210 -1.8281 0 CFG=1
M  V30 17 C  -42.1993 35.8003 -1.6659 0
M  V30 18 N  -41.8520 33.3296 -2.0895 0
M  V30 19 C  -42.6601 33.0181 -3.1204 0
M  V30 20 C  -42.9390 31.5583 -3.2888 0
M  V30 21 C  -43.9468 31.1122 -4.3030 0
M  V30 22 C  -43.9510 29.6724 -4.6136 0
M  V30 23 C  -43.1952 28.8554 -3.8658 0
M  V30 24 N  -42.4167 29.3358 -2.8103 0
M  V30 25 N  -42.2855 30.6841 -2.5822 0
M  V30 26 O  -44.7514 31.8842 -4.8103 0
M  V30 27 O  -43.0832 33.8680 -3.9077 0
M  V30 28 O  -43.1363 38.4755 -1.7700 0
M  V30 29 H  -37.0873 40.6036 -5.1979 0
M  V30 30 H  -36.5567 38.9947 -4.7737 0
M  V30 31 H  -36.7514 39.0837 -7.2100 0
M  V30 32 H  -37.9917 38.0427 -6.6032 0
M  V30 33 H  -38.4583 41.0378 -7.1055 0
M  V30 34 H  -38.8726 39.8474 -8.2828 0
M  V30 35 H  -40.3294 38.6855 -6.6438 0
M  V30 36 H  -39.8885 41.0533 -4.7731 0
M  V30 37 H  -38.7537 38.2843 -4.2369 0
M  V30 38 H  -38.4285 39.7680 -3.3674 0
M  V30 39 H  -42.2869 41.3161 -4.4229 0
M  V30 40 H  -43.2948 39.9230 -4.1232 0
M  V30 41 H  -43.6529 40.6834 -6.4187 0
M  V30 42 H  -42.9510 39.0836 -6.4102 0
M  V30 43 H  -40.1755 39.1886 -2.3777 0
M  V30 44 H  -41.4870 40.2950 -2.3252 0
M  V30 45 H  -40.3402 36.8812 -4.0121 0
M  V30 46 H  -39.4595 36.9704 -2.4632 0
M  V30 47 H  -40.5927 34.6628 -3.9199 0
M  V30 48 H  -39.2428 34.6839 -2.8098 0
M  V30 49 H  -40.6405 34.5299 -0.9074 0
M  V30 50 H  -42.3978 35.9930 -0.6107 0
M  V30 51 H  -43.1626 35.6339 -2.1461 0
M  V30 52 H  -41.5705 32.5621 -1.4937 0
M  V30 53 H  -44.5618 29.3047 -5.4256 0
M  V30 54 H  -43.1414 27.7877 -4.0121 0
M  V30 55 H  -41.9626 28.7045 -2.1492 0
M  V30 56 H  -41.3575 38.5428 -4.6211 0
M  V30 END ATOM
M  V30 BEGIN BOND
M  V30 1 1 1 2
M  V30 2 1 1 6
M  V30 3 1 1 29
M  V30 4 1 1 30
M  V30 5 1 2 3
M  V30 6 1 2 31
M  V30 7 1 2 32
M  V30 8 1 3 4
M  V30 9 1 3 33
M  V30 10 1 3 34
M  V30 11 1 4 5
M  V30 12 1 4 10
M  V30 13 1 4 35
M  V30 14 1 5 6
M  V30 15 1 5 7
M  V30 16 1 5 36
M  V30 17 1 6 37
M  V30 18 1 6 38
M  V30 19 1 7 8
M  V30 20 1 7 11
M  V30 21 1 7 56
M  V30 22 1 8 9
M  V30 23 1 8 39
M  V30 24 1 8 40
M  V30 25 1 9 10
M  V30 26 1 9 41
M  V30 27 1 9 42
M  V30 28 1 11 12
M  V30 29 1 11 43
M  V30 30 1 11 44
M  V30 31 1 12 13
M  V30 32 2 12 28
M  V30 33 1 13 14
M  V30 34 1 13 17
M  V30 35 1 14 15
M  V30 36 1 14 45
M  V30 37 1 14 46
M  V30 38 1 15 16
M  V30 39 1 15 47
M  V30 40 1 15 48
M  V30 41 1 16 17
M  V30 42 1 16 18
M  V30 43 1 16 49
M  V30 44 1 17 50
M  V30 45 1 17 51
M  V30 46 1 18 19
M  V30 47 1 18 52
M  V30 48 1 19 20
M  V30 49 2 19 27
M  V30 50 1 20 21
M  V30 51 2 20 25
M  V30 52 1 21 22
M  V30 53 2 21 26
M  V30 54 2 22 23
M  V30 55 1 22 53
M  V30 56 1 23 24
M  V30 57 1 23 54
M  V30 58 1 24 25
M  V30 59 1 24 55
M  V30 END BOND
M  V30 END CTAB
M  END
> <s_m_entry_id>
369

> <i_f3d_flags>
0

> <r_lp_tautomer_probability>
0.999746388232414

> <r_epik_Ionization_Penalty>
  0.8081

> <r_epik_State_Penalty>
  0.3122

> <i_epik_Tot_Q>
1

> <r_i_docking_score>
-5.66803844573755

> <r_i_glide_gscore>
-5.98023844573755

> <r_i_glide_emodel>
-57.6487226218558

> <s_m_subgroup_title>
nsp13-core1_lib_top-500_pv

> <s_m_subgroupid>
nsp13-core1_lib_top-500_pv

> <b_m_subgroup_collapsed>
0

$$$$
Core_1_EN300-68618_EN300-68618
                    3D
 Schrodinger Suite 2023-1.
  0  0  0     0  0            999 V3000
M  V30 BEGIN CTAB
M  V30 COUNTS 37 40 0 0 0
M  V30 BEGIN ATOM
M  V30 1 C  -40.2286 35.6955 -0.7189 0
M  V30 2 C  -39.4547 37.0062 -0.8535 0
M  V30 3 N  -39.5409 37.3939 -2.2614 0
M  V30 4 C  -40.4465 36.4951 -2.9834 0
M  V30 5 C  -41.1891 35.6984 -1.9025 0 CFG=1
M  V30 6 N  -41.5330 34.3403 -2.3131 0
M  V30 7 C  -42.5818 34.0158 -3.0824 0
M  V30 8 C  -42.7975 32.5786 -3.3167 0
M  V30 9 C  -42.3513 31.4791 -2.5801 0
M  V30 10 C  -42.8599 30.4444 -3.2986 0
M  V30 11 C  -43.5523 30.8727 -4.3212 0
M  V30 12 C  -44.0457 29.7770 -5.0697 0
M  V30 13 C  -43.5519 28.6729 -4.3800 0
M  V30 14 N  -42.8170 29.0839 -3.2496 0
M  V30 15 O  -43.5882 32.2143 -4.4136 0
M  V30 16 O  -43.3181 34.8483 -3.6098 0
M  V30 17 C  -38.9599 38.5267 -2.7208 0
M  V30 18 C  -39.0324 38.8123 -4.1849 0
M  V30 19 C  -38.7514 37.9661 -5.2292 0
M  V30 20 O  -38.8443 38.6520 -6.4101 0
M  V30 21 C  -39.1893 39.9136 -6.0305 0
M  V30 22 N  -39.2995 40.0701 -4.7152 0
M  V30 23 O  -38.3823 39.3117 -1.9668 0
M  V30 24 H  -40.7418 35.6060 0.2406 0
M  V30 25 H  -39.5278 34.8629 -0.7992 0
M  V30 26 H  -39.9155 37.7814 -0.2375 0
M  V30 27 H  -38.4176 36.8903 -0.5312 0
M  V30 28 H  -39.8578 35.8365 -3.6220 0
M  V30 29 H  -41.1497 37.0434 -3.6100 0
M  V30 30 H  -42.0893 36.2443 -1.6127 0
M  V30 31 H  -40.9710 33.5906 -1.9406 0
M  V30 32 H  -41.7416 31.4499 -1.6874 0
M  V30 33 H  -44.6377 29.7752 -5.9737 0
M  V30 34 H  -43.6566 27.6193 -4.5902 0
M  V30 35 H  -42.3538 28.5030 -2.5549 0
M  V30 36 H  -38.4769 36.9247 -5.2968 0
M  V30 37 H  -39.3372 40.7002 -6.7568 0
M  V30 END ATOM
M  V30 BEGIN BOND
M  V30 1 1 1 2
M  V30 2 1 1 5
M  V30 3 1 1 24
M  V30 4 1 1 25
M  V30 5 1 2 3
M  V30 6 1 2 26
M  V30 7 1 2 27
M  V30 8 1 3 4
M  V30 9 1 3 17
M  V30 10 1 4 5
M  V30 11 1 4 28
M  V30 12 1 4 29
M  V30 13 1 5 6
M  V30 14 1 5 30
M  V30 15 1 6 7
M  V30 16 1 6 31
M  V30 17 1 7 8
M  V30 18 2 7 16
M  V30 19 2 8 9
M  V30 20 1 8 15
M  V30 21 1 9 10
M  V30 22 1 9 32
M  V30 23 2 10 11
M  V30 24 1 10 14
M  V30 25 1 11 12
M  V30 26 1 11 15
M  V30 27 2 12 13
M  V30 28 1 12 33
M  V30 29 1 13 14
M  V30 30 1 13 34
M  V30 31 1 14 35
M  V30 32 1 17 18
M  V30 33 2 17 23
M  V30 34 2 18 19
M  V30 35 1 18 22
M  V30 36 1 19 20
M  V30 37 1 19 36
M  V30 38 1 20 21
M  V30 39 2 21 22
M  V30 40 1 21 37
M  V30 END BOND
M  V30 END CTAB
M  END
> <s_m_entry_id>
370

> <i_f3d_flags>
0

> <r_lp_tautomer_probability>
1

> <r_epik_Ionization_Penalty>
  0.0000

> <r_epik_State_Penalty>
  0.0000

> <i_epik_Tot_Q>
0

> <r_i_docking_score>
-5.66786996036197

> <r_i_glide_gscore>
-5.66786996036197

> <r_i_glide_emodel>
-48.4324860569034

> <s_m_subgroup_title>
nsp13-core1_lib_top-500_pv

> <s_m_subgroupid>
nsp13-core1_lib_top-500_pv

> <b_m_subgroup_collapsed>
0

$$$$
Core_1_EN300-79435_EN300-79435
                    3D
 Schrodinger Suite 2023-1.
  0  0  0     0  0            999 V3000
M  V30 BEGIN CTAB
M  V30 COUNTS 42 44 0 0 0
M  V30 BEGIN ATOM
M  V30 1 C  -43.7820 29.3001 -5.0558 0
M  V30 2 C  -42.6290 29.3057 -4.0434 0
M  V30 3 N  -42.8128 30.3240 -3.0245 0
M  V30 4 C  -43.4253 30.2431 -1.7954 0
M  V30 5 C  -43.4080 31.4645 -1.2039 0
M  V30 6 C  -42.6074 32.2330 -2.0990 0
M  V30 7 C  -42.1489 33.6310 -1.7832 0
M  V30 8 N  -41.5787 33.8730 -0.5753 0
M  V30 9 C  -40.7657 35.0591 -0.3215 0
M  V30 10 C  -39.8647 34.6959 0.8584 0
M  V30 11 C  -40.6804 33.6805 1.6641 0 CFG=1
M  V30 12 C  -41.5514 32.9980 0.6034 0
M  V30 13 N  -39.9055 32.6838 2.4052 0
M  V30 14 C  -38.8389 32.9148 3.1897 0
M  V30 15 C  -38.2411 31.7323 3.8436 0
M  V30 16 C  -37.0691 31.7207 4.5433 0
M  V30 17 C  -36.9557 30.3468 4.9048 0
M  V30 18 N  -37.9577 29.5860 4.4853 0
M  V30 19 N  -38.7514 30.4569 3.8275 0
M  V30 20 O  -35.9514 29.7528 5.6054 0
M  V30 21 O  -38.3514 34.0328 3.3581 0
M  V30 22 O  -42.1875 34.4792 -2.6767 0
M  V30 23 N  -42.3514 31.5755 -3.2275 0
M  V30 24 O  -43.9514 29.0838 -1.3381 0
M  V30 25 H  -43.6213 28.5430 -5.8241 0
M  V30 26 H  -44.7324 29.0838 -4.5681 0
M  V30 27 H  -43.8739 30.2652 -5.5546 0
M  V30 28 H  -41.6801 29.4840 -4.5516 0
M  V30 29 H  -42.5448 28.3329 -3.5574 0
M  V30 30 H  -43.8332 31.7186 -0.2453 0
M  V30 31 H  -43.2377 28.4572 -1.2103 0
M  V30 32 H  -41.4249 35.8891 -0.0634 0
M  V30 33 H  -40.1726 35.3560 -1.1886 0
M  V30 34 H  -39.5789 35.5690 1.4459 0
M  V30 35 H  -38.9489 34.2385 0.4814 0
M  V30 36 H  -41.3247 34.2173 2.3624 0
M  V30 37 H  -41.1514 32.0201 0.3296 0
M  V30 38 H  -42.5487 32.8528 1.0164 0
M  V30 39 H  -40.2802 31.7349 2.3897 0
M  V30 40 H  -36.4047 32.5483 4.7416 0
M  V30 41 H  -35.2442 30.3471 5.7994 0
M  V30 42 H  -39.6519 30.1920 3.4006 0
M  V30 END ATOM
M  V30 BEGIN BOND
M  V30 1 1 1 2
M  V30 2 1 1 25
M  V30 3 1 1 26
M  V30 4 1 1 27
M  V30 5 1 2 28
M  V30 6 1 2 29
M  V30 7 1 2 3
M  V30 8 1 3 23
M  V30 9 1 3 4
M  V30 10 2 4 5
M  V30 11 1 4 24
M  V30 12 1 5 30
M  V30 13 1 5 6
M  V30 14 1 6 7
M  V30 15 2 6 23
M  V30 16 1 7 8
M  V30 17 2 7 22
M  V30 18 1 8 9
M  V30 19 1 8 12
M  V30 20 1 9 10
M  V30 21 1 9 32
M  V30 22 1 9 33
M  V30 23 1 10 11
M  V30 24 1 10 34
M  V30 25 1 10 35
M  V30 26 1 11 12
M  V30 27 1 11 13
M  V30 28 1 11 36
M  V30 29 1 12 37
M  V30 30 1 12 38
M  V30 31 1 13 14
M  V30 32 1 13 39
M  V30 33 2 14 21
M  V30 34 1 14 15
M  V30 35 2 15 16
M  V30 36 1 15 19
M  V30 37 1 16 40
M  V30 38 1 16 17
M  V30 39 2 17 18
M  V30 40 1 17 20
M  V30 41 1 18 19
M  V30 42 1 19 42
M  V30 43 1 20 41
M  V30 44 1 24 31
M  V30 END BOND
M  V30 END CTAB
M  END
> <s_m_entry_id>
375

> <i_f3d_flags>
0

> <r_lp_tautomer_probability>
0.647740373268086

> <r_epik_Ionization_Penalty>
  0.5583

> <r_epik_State_Penalty>
  0.0073

> <i_epik_Tot_Q>
0

> <r_i_docking_score>
-5.66408405906884

> <r_i_glide_gscore>
-5.67138405906883

> <r_i_glide_emodel>
-52.0379222691149

> <s_m_subgroup_title>
nsp13-core1_lib_top-500_pv

> <s_m_subgroupid>
nsp13-core1_lib_top-500_pv

> <b_m_subgroup_collapsed>
0

$$$$
Core_1_EN300-31077_EN300-31077
                    3D
 Schrodinger Suite 2023-1.
  0  0  0     0  0            999 V3000
M  V30 BEGIN CTAB
M  V30 COUNTS 40 42 0 0 0
M  V30 BEGIN ATOM
M  V30 1 C  -39.1062 38.4047 -1.6155 0
M  V30 2 N  -39.4421 37.1831 -2.3206 0
M  V30 3 C  -39.7451 35.9250 -1.8337 0
M  V30 4 C  -39.9514 35.0843 -2.8942 0
M  V30 5 C  -39.7816 35.9438 -4.0103 0
M  V30 6 N  -39.4918 37.1923 -3.6690 0
M  V30 7 C  -39.7215 35.5449 -0.3956 0
M  V30 8 N  -40.6875 34.7359 0.0956 0
M  V30 9 C  -40.8219 34.4605 1.5241 0
M  V30 10 C  -41.9661 33.4590 1.6689 0
M  V30 11 C  -42.7705 33.5726 0.3760 0 CFG=1
M  V30 12 C  -41.7634 34.0889 -0.6542 0
M  V30 13 N  -43.3320 32.2838 -0.0107 0
M  V30 14 C  -44.1335 32.0657 -1.0617 0
M  V30 15 C  -44.5931 30.6232 -1.2809 0
M  V30 16 C  -44.1611 30.1800 -2.6452 0
M  V30 17 N  -44.7545 30.5172 -3.7890 0
M  V30 18 C  -44.0674 29.8139 -4.7791 0
M  V30 19 C  -43.0721 29.0646 -4.1989 0
M  V30 20 N  -43.1534 29.3198 -2.8403 0
M  V30 21 O  -44.4979 32.9611 -1.8249 0
M  V30 22 O  -38.8671 36.0420 0.3393 0
M  V30 23 H  -39.8240 38.5788 -0.8140 0
M  V30 24 H  -38.1072 38.3143 -1.1881 0
M  V30 25 H  -39.1251 39.2569 -2.2969 0
M  V30 26 H  -40.1703 34.0275 -2.8956 0
M  V30 27 H  -39.8529 35.6997 -5.0597 0
M  V30 28 H  -41.0621 35.3895 2.0472 0
M  V30 29 H  -39.8955 34.0664 1.9502 0
M  V30 30 H  -42.5734 33.6369 2.5580 0
M  V30 31 H  -41.5438 32.4563 1.7662 0
M  V30 32 H  -43.5657 34.3076 0.5117 0
M  V30 33 H  -41.3365 33.2518 -1.2107 0
M  V30 34 H  -42.2461 34.7662 -1.3605 0
M  V30 35 H  -43.1512 31.5180 0.6398 0
M  V30 36 H  -45.6793 30.5713 -1.2064 0
M  V30 37 H  -44.1775 29.9574 -0.5226 0
M  V30 38 H  -44.3511 29.8879 -5.8176 0
M  V30 39 H  -42.3511 28.3836 -4.6251 0
M  V30 40 H  -42.5959 28.8761 -2.1174 0
M  V30 END ATOM
M  V30 BEGIN BOND
M  V30 1 1 1 2
M  V30 2 1 1 23
M  V30 3 1 1 24
M  V30 4 1 1 25
M  V30 5 1 2 3
M  V30 6 1 2 6
M  V30 7 2 3 4
M  V30 8 1 3 7
M  V30 9 1 4 5
M  V30 10 1 4 26
M  V30 11 2 5 6
M  V30 12 1 5 27
M  V30 13 1 7 8
M  V30 14 2 7 22
M  V30 15 1 8 9
M  V30 16 1 8 12
M  V30 17 1 9 10
M  V30 18 1 9 28
M  V30 19 1 9 29
M  V30 20 1 10 11
M  V30 21 1 10 30
M  V30 22 1 10 31
M  V30 23 1 11 12
M  V30 24 1 11 13
M  V30 25 1 11 32
M  V30 26 1 12 33
M  V30 27 1 12 34
M  V30 28 1 13 14
M  V30 29 1 13 35
M  V30 30 1 14 15
M  V30 31 2 14 21
M  V30 32 1 15 16
M  V30 33 1 15 36
M  V30 34 1 15 37
M  V30 35 2 16 17
M  V30 36 1 16 20
M  V30 37 1 17 18
M  V30 38 2 18 19
M  V30 39 1 18 38
M  V30 40 1 19 20
M  V30 41 1 19 39
M  V30 42 1 20 40
M  V30 END BOND
M  V30 END CTAB
M  END
> <s_m_entry_id>
389

> <i_f3d_flags>
0

> <r_lp_tautomer_probability>
0.499999999999999

> <r_epik_Ionization_Penalty>
  0.0851

> <r_epik_State_Penalty>
  0.0851

> <i_epik_Tot_Q>
0

> <r_i_docking_score>
-5.65595542154457

> <r_i_glide_gscore>
-5.74105542154457

> <r_i_glide_emodel>
-47.3203298934329

> <s_m_subgroup_title>
nsp13-core1_lib_top-500_pv

> <s_m_subgroupid>
nsp13-core1_lib_top-500_pv

> <b_m_subgroup_collapsed>
0

$$$$
Core_1_EN300-120138_EN300-120138
                    3D
 Schrodinger Suite 2023-1.
  0  0  0     0  0            999 V3000
M  V30 BEGIN CTAB
M  V30 COUNTS 42 45 0 0 0
M  V30 BEGIN ATOM
M  V30 1 C  -37.9342 41.8884 -5.7807 0
M  V30 2 C  -38.4404 40.5161 -5.4079 0
M  V30 3 N  -39.4570 40.2934 -4.6876 0
M  V30 4 C  -39.6984 38.8830 -4.4065 0 CFG=1
M  V30 5 C  -38.9034 38.0118 -5.4111 0
M  V30 6 S  -37.5944 39.0838 -6.0081 0
M  V30 7 C  -39.3268 38.5491 -2.9396 0
M  V30 8 N  -39.9125 37.4870 -2.3459 0
M  V30 9 C  -39.6704 37.1138 -0.9527 0
M  V30 10 C  -40.3070 35.7358 -0.7674 0
M  V30 11 C  -41.3887 35.6760 -1.8403 0 CFG=1
M  V30 12 C  -40.8396 36.5473 -2.9749 0
M  V30 13 N  -41.6693 34.3077 -2.2584 0
M  V30 14 C  -42.6813 33.9540 -3.0649 0
M  V30 15 C  -42.8332 32.5164 -3.3247 0
M  V30 16 C  -42.3552 31.4213 -2.6072 0
M  V30 17 C  -42.8452 30.3917 -3.3411 0
M  V30 18 C  -43.5481 30.8145 -4.3599 0
M  V30 19 C  -44.0410 29.7164 -5.1055 0
M  V30 20 C  -43.5459 28.6176 -4.4110 0
M  V30 21 N  -42.8065 29.0353 -3.2848 0
M  V30 22 O  -43.6089 32.1549 -4.4331 0
M  V30 23 O  -43.4286 34.7626 -3.6088 0
M  V30 24 O  -38.5044 39.2434 -2.3383 0
M  V30 25 H  -38.5782 42.6633 -5.3634 0
M  V30 26 H  -36.9251 42.0292 -5.3939 0
M  V30 27 H  -37.9112 42.0003 -6.8653 0
M  V30 28 H  -40.7627 38.7059 -4.5481 0
M  V30 29 H  -38.4971 37.0987 -4.9769 0
M  V30 30 H  -39.5360 37.7289 -6.2520 0
M  V30 31 H  -40.1594 37.8468 -0.3079 0
M  V30 32 H  -38.6077 37.0972 -0.7028 0
M  V30 33 H  -40.7028 35.5861 0.2391 0
M  V30 34 H  -39.5495 34.9712 -0.9478 0
M  V30 35 H  -42.2943 36.1392 -1.4450 0
M  V30 36 H  -40.2846 35.9479 -3.6976 0
M  V30 37 H  -41.6627 37.0351 -3.4975 0
M  V30 38 H  -41.0774 33.5811 -1.8866 0
M  V30 39 H  -41.7615 31.3851 -1.7062 0
M  V30 40 H  -44.6402 29.7065 -6.0053 0
M  V30 41 H  -43.6596 27.5647 -4.6164 0
M  V30 42 H  -42.3523 28.4603 -2.5822 0
M  V30 END ATOM
M  V30 BEGIN BOND
M  V30 1 1 1 2
M  V30 2 1 1 25
M  V30 3 1 1 26
M  V30 4 1 1 27
M  V30 5 2 2 3
M  V30 6 1 2 6
M  V30 7 1 3 4
M  V30 8 1 4 5
M  V30 9 1 4 7
M  V30 10 1 4 28
M  V30 11 1 5 6
M  V30 12 1 5 29
M  V30 13 1 5 30
M  V30 14 1 7 8
M  V30 15 2 7 24
M  V30 16 1 8 9
M  V30 17 1 8 12
M  V30 18 1 9 10
M  V30 19 1 9 31
M  V30 20 1 9 32
M  V30 21 1 10 11
M  V30 22 1 10 33
M  V30 23 1 10 34
M  V30 24 1 11 12
M  V30 25 1 11 13
M  V30 26 1 11 35
M  V30 27 1 12 36
M  V30 28 1 12 37
M  V30 29 1 13 14
M  V30 30 1 13 38
M  V30 31 1 14 15
M  V30 32 2 14 23
M  V30 33 2 15 16
M  V30 34 1 15 22
M  V30 35 1 16 17
M  V30 36 1 16 39
M  V30 37 2 17 18
M  V30 38 1 17 21
M  V30 39 1 18 19
M  V30 40 1 18 22
M  V30 41 2 19 20
M  V30 42 1 19 40
M  V30 43 1 20 21
M  V30 44 1 20 41
M  V30 45 1 21 42
M  V30 END BOND
M  V30 END CTAB
M  END
> <s_m_entry_id>
395

> <i_f3d_flags>
0

> <r_lp_tautomer_probability>
1

> <r_epik_Ionization_Penalty>
  0.0000

> <r_epik_State_Penalty>
  0.0000

> <i_epik_Tot_Q>
0

> <r_i_docking_score>
-5.65160945924043

> <r_i_glide_gscore>
-5.65160945924043

> <r_i_glide_emodel>
-51.7761564017513

> <s_m_subgroup_title>
nsp13-core1_lib_top-500_pv

> <s_m_subgroupid>
nsp13-core1_lib_top-500_pv

> <b_m_subgroup_collapsed>
0

$$$$
Core_1_EN300-10334_EN300-10334
                    3D
 Schrodinger Suite 2023-1.
  0  0  0     0  0            999 V3000
M  V30 BEGIN CTAB
M  V30 COUNTS 46 49 0 0 0
M  V30 BEGIN ATOM
M  V30 1 C  -41.5403 33.2556 1.3310 0
M  V30 2 C  -40.6957 34.5195 1.1570 0
M  V30 3 N  -41.1580 35.1636 -0.0718 0
M  V30 4 C  -42.3757 34.5074 -0.5347 0
M  V30 5 C  -42.8170 33.5201 0.5385 0 CFG=1
M  V30 6 N  -43.3625 32.2836 -0.0103 0
M  V30 7 C  -44.2659 32.1267 -0.9890 0
M  V30 8 C  -44.7052 30.6884 -1.2729 0
M  V30 9 C  -44.2165 30.2838 -2.6313 0
M  V30 10 N  -44.7558 30.6608 -3.7886 0
M  V30 11 C  -44.0406 29.9696 -4.7673 0
M  V30 12 C  -43.0814 29.1874 -4.1694 0
M  V30 13 N  -43.2159 29.4110 -2.8099 0
M  V30 14 O  -44.7511 33.0606 -1.6288 0
M  V30 15 C  -40.5418 36.2496 -0.6047 0
M  V30 16 C  -40.9778 36.8895 -1.9632 0 CFG=2
M  V30 17 C  -42.0573 37.9803 -1.7686 0
M  V30 18 C  -43.3207 37.4665 -2.4781 0
M  V30 19 C  -42.8405 36.2256 -3.2089 0
M  V30 20 N  -41.5641 35.9623 -2.9164 0
M  V30 21 C  -40.6379 35.1369 -3.6859 0
M  V30 22 C  -39.2716 35.8146 -3.5765 0
M  V30 23 S  -39.5510 37.4759 -2.9108 0
M  V30 24 O  -43.5515 35.5646 -3.9571 0
M  V30 25 O  -39.5868 36.7613 -0.0178 0
M  V30 26 H  -41.7373 33.0184 2.3772 0
M  V30 27 H  -41.0014 32.4069 0.9067 0
M  V30 28 H  -40.8536 35.1995 1.9953 0
M  V30 29 H  -39.6320 34.2799 1.1135 0
M  V30 30 H  -42.1514 33.9666 -1.4536 0
M  V30 31 H  -43.1792 35.2195 -0.7137 0
M  V30 32 H  -43.5552 33.9897 1.1898 0
M  V30 33 H  -43.1514 31.4679 0.5628 0
M  V30 34 H  -45.7932 30.6264 -1.2436 0
M  V30 35 H  -44.3182 30.0026 -0.5169 0
M  V30 36 H  -44.2806 30.0753 -5.8147 0
M  V30 37 H  -42.3514 28.5065 -4.5825 0
M  V30 38 H  -42.6954 28.9406 -2.0769 0
M  V30 39 H  -42.2641 38.1790 -0.7157 0
M  V30 40 H  -41.7398 38.9275 -2.2065 0
M  V30 41 H  -43.7196 38.1968 -3.1827 0
M  V30 42 H  -44.1047 37.1993 -1.7695 0
M  V30 43 H  -40.6094 34.1175 -3.3000 0
M  V30 44 H  -40.9360 35.0836 -4.7314 0
M  V30 45 H  -38.6538 35.2597 -2.8717 0
M  V30 46 H  -38.7515 35.8527 -4.5333 0
M  V30 END ATOM
M  V30 BEGIN BOND
M  V30 1 1 1 2
M  V30 2 1 1 5
M  V30 3 1 1 26
M  V30 4 1 1 27
M  V30 5 1 2 3
M  V30 6 1 2 28
M  V30 7 1 2 29
M  V30 8 1 3 4
M  V30 9 1 3 15
M  V30 10 1 4 5
M  V30 11 1 4 30
M  V30 12 1 4 31
M  V30 13 1 5 6
M  V30 14 1 5 32
M  V30 15 1 6 7
M  V30 16 1 6 33
M  V30 17 1 7 8
M  V30 18 2 7 14
M  V30 19 1 8 9
M  V30 20 1 8 34
M  V30 21 1 8 35
M  V30 22 2 9 10
M  V30 23 1 9 13
M  V30 24 1 10 11
M  V30 25 2 11 12
M  V30 26 1 11 36
M  V30 27 1 12 13
M  V30 28 1 12 37
M  V30 29 1 13 38
M  V30 30 1 15 16
M  V30 31 2 15 25
M  V30 32 1 16 17
M  V30 33 1 16 20
M  V30 34 1 16 23
M  V30 35 1 17 18
M  V30 36 1 17 39
M  V30 37 1 17 40
M  V30 38 1 18 19
M  V30 39 1 18 41
M  V30 40 1 18 42
M  V30 41 1 19 20
M  V30 42 2 19 24
M  V30 43 1 20 21
M  V30 44 1 21 22
M  V30 45 1 21 43
M  V30 46 1 21 44
M  V30 47 1 22 23
M  V30 48 1 22 45
M  V30 49 1 22 46
M  V30 END BOND
M  V30 END CTAB
M  END
> <s_m_entry_id>
399

> <i_f3d_flags>
0

> <r_lp_tautomer_probability>
0.499999999999999

> <r_epik_Ionization_Penalty>
  0.0870

> <r_epik_State_Penalty>
  0.0870

> <i_epik_Tot_Q>
0

> <r_i_docking_score>
-5.64986635240069

> <r_i_glide_gscore>
-5.73686635240069

> <r_i_glide_emodel>
-45.2781181093355

> <s_m_subgroup_title>
nsp13-core1_lib_top-500_pv

> <s_m_subgroupid>
nsp13-core1_lib_top-500_pv

> <b_m_subgroup_collapsed>
0

$$$$
Core_1_EN300-82037_EN300-82037
                    3D
 Schrodinger Suite 2023-1.
  0  0  0     0  0            999 V3000
M  V30 BEGIN CTAB
M  V30 COUNTS 37 39 0 0 0
M  V30 BEGIN ATOM
M  V30 1 C  -42.9813 36.3954 -2.8415 0
M  V30 2 C  -43.8344 35.1607 -2.5683 0
M  V30 3 N  -42.9990 34.0109 -2.8983 0
M  V30 4 C  -41.6156 34.4247 -3.1358 0
M  V30 5 C  -41.5415 35.9005 -2.7315 0 CFG=1
M  V30 6 N  -40.6587 36.6608 -3.6102 0
M  V30 7 C  -39.6395 37.4297 -3.2000 0
M  V30 8 C  -39.0104 38.2837 -4.2285 0
M  V30 9 C  -38.2001 39.3488 -3.9694 0
M  V30 10 C  -37.8994 39.8150 -5.2783 0
M  V30 11 N  -38.4459 39.1016 -6.2569 0
M  V30 12 N  -39.1513 38.1615 -5.5918 0
M  V30 13 O  -37.1514 40.8979 -5.6103 0
M  V30 14 O  -39.2603 37.4778 -2.0297 0
M  V30 15 C  -43.4684 32.7458 -2.9155 0
M  V30 16 C  -42.5015 31.6164 -3.3214 0
M  V30 17 C  -43.1631 30.4392 -3.9968 0
M  V30 18 C  -42.7514 29.0825 -3.9366 0
M  V30 19 C  -43.5842 28.4469 -4.8101 0
M  V30 20 O  -44.4807 29.3205 -5.3286 0
M  V30 21 N  -44.2003 30.5889 -4.8102 0
M  V30 22 O  -44.6378 32.4839 -2.6216 0
M  V30 23 H  -43.1866 36.7502 -3.8539 0
M  V30 24 H  -43.1972 37.2162 -2.1554 0
M  V30 25 H  -44.7515 35.1777 -3.1567 0
M  V30 26 H  -44.1095 35.1088 -1.5135 0
M  V30 27 H  -40.9065 33.8302 -2.5566 0
M  V30 28 H  -41.3786 34.2941 -4.1936 0
M  V30 29 H  -41.2322 35.9587 -1.6858 0
M  V30 30 H  -40.9543 36.7386 -4.5798 0
M  V30 31 H  -37.8878 39.7380 -3.0117 0
M  V30 32 H  -36.9308 40.8936 -6.5338 0
M  V30 33 H  -39.7472 37.4882 -6.0602 0
M  V30 34 H  -41.9740 31.2861 -2.4262 0
M  V30 35 H  -41.7439 31.9984 -4.0036 0
M  V30 36 H  -41.9451 28.6468 -3.3661 0
M  V30 37 H  -43.6762 27.4232 -5.1385 0
M  V30 END ATOM
M  V30 BEGIN BOND
M  V30 1 1 1 2
M  V30 2 1 1 5
M  V30 3 1 1 23
M  V30 4 1 1 24
M  V30 5 1 2 3
M  V30 6 1 2 25
M  V30 7 1 2 26
M  V30 8 1 3 4
M  V30 9 1 3 15
M  V30 10 1 4 5
M  V30 11 1 4 27
M  V30 12 1 4 28
M  V30 13 1 5 6
M  V30 14 1 5 29
M  V30 15 1 6 7
M  V30 16 1 6 30
M  V30 17 2 7 14
M  V30 18 1 7 8
M  V30 19 2 8 9
M  V30 20 1 8 12
M  V30 21 1 9 31
M  V30 22 1 9 10
M  V30 23 2 10 11
M  V30 24 1 10 13
M  V30 25 1 11 12
M  V30 26 1 12 33
M  V30 27 1 13 32
M  V30 28 1 15 16
M  V30 29 2 15 22
M  V30 30 1 16 17
M  V30 31 1 16 34
M  V30 32 1 16 35
M  V30 33 1 17 18
M  V30 34 2 17 21
M  V30 35 2 18 19
M  V30 36 1 18 36
M  V30 37 1 19 20
M  V30 38 1 19 37
M  V30 39 1 20 21
M  V30 END BOND
M  V30 END CTAB
M  END
> <s_m_entry_id>
406

> <i_f3d_flags>
0

> <r_lp_tautomer_probability>
0.966084542645576

> <r_epik_Ionization_Penalty>
  0.2457

> <r_epik_State_Penalty>
  0.3548

> <i_epik_Tot_Q>
0

> <r_i_docking_score>
-5.64490528917801

> <r_i_glide_gscore>
-5.99970528917801

> <r_i_glide_emodel>
-54.2345088176599

> <s_m_subgroup_title>
nsp13-core1_lib_top-500_pv

> <s_m_subgroupid>
nsp13-core1_lib_top-500_pv

> <b_m_subgroup_collapsed>
0

$$$$
Core_1_EN300-52983_EN300-52983
                    3D
 Schrodinger Suite 2023-1.
  0  0  0     0  0            999 V3000
M  V30 BEGIN CTAB
M  V30 COUNTS 47 49 0 0 0
M  V30 BEGIN ATOM
M  V30 1 C  -38.9103 39.7333 -3.3567 0
M  V30 2 N  -39.2201 38.3101 -3.2107 0
M  V30 3 C  -39.4175 37.8537 -1.8264 0
M  V30 4 C  -40.0702 36.4553 -1.6859 0 CFG=1
M  V30 5 C  -39.4373 35.4878 -2.6919 0
M  V30 6 C  -39.5593 36.0188 -4.1207 0
M  V30 7 C  -39.1514 37.4912 -4.2846 0
M  V30 8 O  -38.7795 37.8832 -5.3932 0
M  V30 9 C  -39.9468 35.9037 -0.2475 0
M  V30 10 N  -40.8757 35.0386 0.2177 0
M  V30 11 C  -40.9129 34.6078 1.6126 0
M  V30 12 C  -41.9197 33.4644 1.6804 0
M  V30 13 C  -42.8131 33.6439 0.4573 0 CFG=1
M  V30 14 C  -41.9165 34.3641 -0.5593 0
M  V30 15 N  -43.3074 32.3539 -0.0104 0
M  V30 16 C  -44.0944 32.1447 -1.0730 0
M  V30 17 C  -44.5827 30.7076 -1.2779 0
M  V30 18 C  -44.1565 30.2340 -2.6329 0
M  V30 19 N  -44.7517 30.5526 -3.7832 0
M  V30 20 C  -44.0660 29.8265 -4.7589 0
M  V30 21 C  -43.0736 29.0839 -4.1646 0
M  V30 22 N  -43.1554 29.3640 -2.8106 0
M  V30 23 O  -44.4481 33.0399 -1.8404 0
M  V30 24 O  -39.0217 36.2913 0.4668 0
M  V30 25 H  -37.8840 39.8660 -3.6996 0
M  V30 26 H  -39.5766 40.1952 -4.0860 0
M  V30 27 H  -39.0164 40.2793 -2.4196 0
M  V30 28 H  -40.0228 38.5792 -1.2824 0
M  V30 29 H  -38.4292 37.8665 -1.3640 0
M  V30 30 H  -41.1251 36.5763 -1.9318 0
M  V30 31 H  -38.3926 35.3077 -2.4437 0
M  V30 32 H  -39.9450 34.5233 -2.6525 0
M  V30 33 H  -38.9768 35.4051 -4.8079 0
M  V30 34 H  -40.6039 35.9196 -4.4103 0
M  V30 35 H  -41.2406 35.4418 2.2344 0
M  V30 36 H  -39.9332 34.2884 1.9692 0
M  V30 37 H  -42.4816 33.4486 2.6144 0
M  V30 38 H  -41.3786 32.5194 1.6143 0
M  V30 39 H  -43.6539 34.2894 0.7195 0
M  V30 40 H  -41.4416 33.6437 -1.2250 0
M  V30 41 H  -42.5073 35.0511 -1.1656 0
M  V30 42 H  -43.1517 31.5777 0.6336 0
M  V30 43 H  -45.6700 30.6758 -1.2048 0
M  V30 44 H  -44.1825 30.0432 -0.5093 0
M  V30 45 H  -44.3475 29.8837 -5.8009 0
M  V30 46 H  -42.3511 28.3952 -4.5787 0
M  V30 47 H  -42.5980 28.9327 -2.0799 0
M  V30 END ATOM
M  V30 BEGIN BOND
M  V30 1 1 1 2
M  V30 2 1 1 25
M  V30 3 1 1 26
M  V30 4 1 1 27
M  V30 5 1 2 3
M  V30 6 1 2 7
M  V30 7 1 3 4
M  V30 8 1 3 28
M  V30 9 1 3 29
M  V30 10 1 4 5
M  V30 11 1 4 9
M  V30 12 1 4 30
M  V30 13 1 5 6
M  V30 14 1 5 31
M  V30 15 1 5 32
M  V30 16 1 6 7
M  V30 17 1 6 33
M  V30 18 1 6 34
M  V30 19 2 7 8
M  V30 20 1 9 10
M  V30 21 2 9 24
M  V30 22 1 10 11
M  V30 23 1 10 14
M  V30 24 1 11 12
M  V30 25 1 11 35
M  V30 26 1 11 36
M  V30 27 1 12 13
M  V30 28 1 12 37
M  V30 29 1 12 38
M  V30 30 1 13 14
M  V30 31 1 13 15
M  V30 32 1 13 39
M  V30 33 1 14 40
M  V30 34 1 14 41
M  V30 35 1 15 16
M  V30 36 1 15 42
M  V30 37 1 16 17
M  V30 38 2 16 23
M  V30 39 1 17 18
M  V30 40 1 17 43
M  V30 41 1 17 44
M  V30 42 2 18 19
M  V30 43 1 18 22
M  V30 44 1 19 20
M  V30 45 2 20 21
M  V30 46 1 20 45
M  V30 47 1 21 22
M  V30 48 1 21 46
M  V30 49 1 22 47
M  V30 END BOND
M  V30 END CTAB
M  END
> <s_m_entry_id>
409

> <i_f3d_flags>
0

> <r_lp_tautomer_probability>
0.499999999999999

> <r_epik_Ionization_Penalty>
  0.0875

> <r_epik_State_Penalty>
  0.0875

> <i_epik_Tot_Q>
0

> <r_i_docking_score>
-5.63937017060977

> <r_i_glide_gscore>
-5.72687017060977

> <r_i_glide_emodel>
-48.1470440898095

> <s_m_subgroup_title>
nsp13-core1_lib_top-500_pv

> <s_m_subgroupid>
nsp13-core1_lib_top-500_pv

> <b_m_subgroup_collapsed>
0

$$$$
Core_1_EN300-43661_EN300-43661
                    3D
 Schrodinger Suite 2023-1.
  0  0  0     0  0            999 V3000
M  V30 BEGIN CTAB
M  V30 COUNTS 42 44 0 0 0
M  V30 BEGIN ATOM
M  V30 1 C  -43.1056 34.2401 0.9732 0
M  V30 2 C  -41.9674 34.4200 -0.0339 0
M  V30 3 N  -42.5931 34.5391 -1.3515 0
M  V30 4 C  -44.0317 34.3020 -1.2615 0
M  V30 5 C  -44.2902 33.7445 0.1488 0 CFG=1
M  V30 6 N  -44.3355 32.2870 0.1318 0
M  V30 7 C  -45.2814 31.5549 -0.4655 0
M  V30 8 C  -44.9083 30.1144 -0.8065 0
M  V30 9 C  -44.2641 30.1183 -2.1680 0
M  V30 10 N  -44.7524 30.6826 -3.2751 0
M  V30 11 C  -43.8278 30.3839 -4.2762 0
M  V30 12 C  -42.8044 29.6320 -3.7509 0
M  V30 13 N  -43.1114 29.4840 -2.4102 0
M  V30 14 O  -46.3710 32.0119 -0.8101 0
M  V30 15 C  -41.9484 34.7010 -2.5283 0
M  V30 16 C  -40.4309 34.9382 -2.5294 0
M  V30 17 N  -40.1264 36.3234 -2.8305 0
M  V30 18 C  -40.3301 37.4435 -2.0469 0
M  V30 19 C  -39.8901 38.5256 -2.7535 0
M  V30 20 C  -39.4237 37.9530 -3.9735 0
M  V30 21 N  -39.5514 36.6341 -4.0109 0
M  V30 22 N  -38.8460 38.7582 -5.0654 0 CHG=1
M  V30 23 O  -38.7425 39.9682 -4.8911 0 CHG=-1
M  V30 24 O  -38.4884 38.1854 -6.0918 0
M  V30 25 O  -42.5420 34.6832 -3.6092 0
M  V30 26 H  -43.3553 35.2081 1.4083 0
M  V30 27 H  -42.8424 33.5734 1.7957 0
M  V30 28 H  -41.3619 35.2934 0.2116 0
M  V30 29 H  -41.3195 33.5421 -0.0207 0
M  V30 30 H  -44.3921 33.6460 -2.0558 0
M  V30 31 H  -44.5382 35.2605 -1.3818 0
M  V30 32 H  -45.2330 34.1152 0.5549 0
M  V30 33 H  -43.5605 31.7970 0.5707 0
M  V30 34 H  -45.7978 29.4846 -0.8113 0
M  V30 35 H  -44.2201 29.7117 -0.0621 0
M  V30 36 H  -43.9759 30.7175 -5.2911 0
M  V30 37 H  -41.9241 29.1938 -4.2029 0
M  V30 38 H  -42.5987 28.9142 -1.7419 0
M  V30 39 H  -39.9543 34.6835 -1.5857 0
M  V30 40 H  -39.9765 34.2960 -3.2861 0
M  V30 41 H  -40.7744 37.3773 -1.0644 0
M  V30 42 H  -39.9026 39.5630 -2.4529 0
M  V30 END ATOM
M  V30 BEGIN BOND
M  V30 1 1 1 2
M  V30 2 1 1 5
M  V30 3 1 1 26
M  V30 4 1 1 27
M  V30 5 1 2 3
M  V30 6 1 2 28
M  V30 7 1 2 29
M  V30 8 1 3 4
M  V30 9 1 3 15
M  V30 10 1 4 5
M  V30 11 1 4 30
M  V30 12 1 4 31
M  V30 13 1 5 6
M  V30 14 1 5 32
M  V30 15 1 6 7
M  V30 16 1 6 33
M  V30 17 1 7 8
M  V30 18 2 7 14
M  V30 19 1 8 9
M  V30 20 1 8 34
M  V30 21 1 8 35
M  V30 22 2 9 10
M  V30 23 1 9 13
M  V30 24 1 10 11
M  V30 25 2 11 12
M  V30 26 1 11 36
M  V30 27 1 12 13
M  V30 28 1 12 37
M  V30 29 1 13 38
M  V30 30 1 15 16
M  V30 31 2 15 25
M  V30 32 1 16 17
M  V30 33 1 16 39
M  V30 34 1 16 40
M  V30 35 1 17 18
M  V30 36 1 17 21
M  V30 37 2 18 19
M  V30 38 1 18 41
M  V30 39 1 19 20
M  V30 40 1 19 42
M  V30 41 2 20 21
M  V30 42 1 20 22
M  V30 43 1 22 23
M  V30 44 2 22 24
M  V30 END BOND
M  V30 END CTAB
M  END
> <s_m_entry_id>
414

> <i_f3d_flags>
0

> <r_lp_tautomer_probability>
0.499999999999999

> <r_epik_Ionization_Penalty>
  0.0861

> <r_epik_State_Penalty>
  0.0861

> <i_epik_Tot_Q>
0

> <r_i_docking_score>
-5.63723506503267

> <r_i_glide_gscore>
-5.72333506503267

> <r_i_glide_emodel>
-50.3420355486314

> <s_m_subgroup_title>
nsp13-core1_lib_top-500_pv

> <s_m_subgroupid>
nsp13-core1_lib_top-500_pv

> <b_m_subgroup_collapsed>
0

$$$$
Core_1_EN300-1692969_EN300-1692969
                    3D
 Schrodinger Suite 2023-1.
  0  0  0     0  0            999 V3000
M  V30 BEGIN CTAB
M  V30 COUNTS 38 41 0 0 0
M  V30 BEGIN ATOM
M  V30 1 C  -40.6082 37.5234 -1.6571 0
M  V30 2 C  -42.0721 37.1109 -1.7631 0
M  V30 3 N  -42.0813 35.8085 -2.4255 0
M  V30 4 C  -40.7838 35.5455 -3.0566 0
M  V30 5 C  -39.9138 36.7948 -2.8063 0 CFG=1
M  V30 6 N  -39.8176 37.6242 -4.0073 0
M  V30 7 C  -39.0039 38.6840 -4.1749 0
M  V30 8 C  -39.0692 39.3672 -5.4870 0
M  V30 9 C  -38.2692 40.3942 -5.8985 0
M  V30 10 C  -38.7901 40.6764 -7.1968 0
M  V30 11 N  -39.7956 39.8959 -7.5606 0
M  V30 12 N  -39.9518 39.0840 -6.4980 0
M  V30 13 O  -38.3514 41.5999 -8.0923 0
M  V30 14 O  -38.2338 39.0839 -3.3027 0
M  V30 15 C  -43.2206 35.0882 -2.5454 0
M  V30 16 C  -43.1648 33.6891 -3.0955 0
M  V30 17 C  -42.2524 32.7009 -2.5527 0
M  V30 18 C  -42.7498 31.5851 -3.2482 0
M  V30 19 N  -43.7553 31.8933 -4.0599 0
M  V30 20 C  -44.3249 30.8821 -4.7362 0
M  V30 21 C  -43.6677 29.6488 -4.4099 0
M  V30 22 S  -42.3511 29.8774 -3.2078 0
M  V30 23 N  -44.0484 33.2017 -4.0102 0
M  V30 24 O  -44.3194 35.5417 -2.2216 0
M  V30 25 H  -40.2036 37.1599 -0.7115 0
M  V30 26 H  -40.4744 38.6059 -1.6677 0
M  V30 27 H  -42.5455 37.0753 -0.7803 0
M  V30 28 H  -42.6231 37.8256 -2.3774 0
M  V30 29 H  -40.8872 35.3148 -4.1181 0
M  V30 30 H  -40.3231 34.6827 -2.5749 0
M  V30 31 H  -38.9028 36.4995 -2.5186 0
M  V30 32 H  -40.4465 37.3783 -4.7637 0
M  V30 33 H  -37.4586 40.8646 -5.3613 0
M  V30 34 H  -37.4138 41.7134 -8.0110 0
M  V30 35 H  -40.6859 38.3792 -6.4535 0
M  V30 36 H  -41.4756 32.6917 -1.8024 0
M  V30 37 H  -45.1563 31.0871 -5.4009 0
M  V30 38 H  -43.8988 28.6650 -4.7992 0
M  V30 END ATOM
M  V30 BEGIN BOND
M  V30 1 1 1 2
M  V30 2 1 1 5
M  V30 3 1 1 25
M  V30 4 1 1 26
M  V30 5 1 2 3
M  V30 6 1 2 27
M  V30 7 1 2 28
M  V30 8 1 3 4
M  V30 9 1 3 15
M  V30 10 1 4 5
M  V30 11 1 4 29
M  V30 12 1 4 30
M  V30 13 1 5 6
M  V30 14 1 5 31
M  V30 15 1 6 7
M  V30 16 1 6 32
M  V30 17 2 7 14
M  V30 18 1 7 8
M  V30 19 2 8 9
M  V30 20 1 8 12
M  V30 21 1 9 33
M  V30 22 1 9 10
M  V30 23 2 10 11
M  V30 24 1 10 13
M  V30 25 1 11 12
M  V30 26 1 12 35
M  V30 27 1 13 34
M  V30 28 1 15 16
M  V30 29 2 15 24
M  V30 30 1 16 17
M  V30 31 2 16 23
M  V30 32 2 17 18
M  V30 33 1 17 36
M  V30 34 1 18 19
M  V30 35 1 18 22
M  V30 36 1 19 20
M  V30 37 1 19 23
M  V30 38 2 20 21
M  V30 39 1 20 37
M  V30 40 1 21 22
M  V30 41 1 21 38
M  V30 END BOND
M  V30 END CTAB
M  END
> <s_m_entry_id>
416

> <i_f3d_flags>
0

> <r_lp_tautomer_probability>
0.966084542645576

> <r_epik_Ionization_Penalty>
  0.2476

> <r_epik_State_Penalty>
  0.3542

> <i_epik_Tot_Q>
0

> <r_i_docking_score>
-5.63599867736522

> <r_i_glide_gscore>
-5.99019867736522

> <r_i_glide_emodel>
-61.2176244052172

> <s_m_subgroup_title>
nsp13-core1_lib_top-500_pv

> <s_m_subgroupid>
nsp13-core1_lib_top-500_pv

> <b_m_subgroup_collapsed>
0

$$$$
Core_1_EN300-73588_EN300-73588
                    3D
 Schrodinger Suite 2023-1.
  0  0  0     0  0            999 V3000
M  V30 BEGIN CTAB
M  V30 COUNTS 39 42 0 0 0
M  V30 BEGIN ATOM
M  V30 1 C  -40.3157 35.6864 -0.6063 0
M  V30 2 C  -39.5808 37.0239 -0.6613 0
M  V30 3 N  -39.5529 37.4261 -2.0703 0
M  V30 4 C  -40.3597 36.5000 -2.8720 0
M  V30 5 C  -41.1846 35.6923 -1.8584 0 CFG=1
M  V30 6 N  -41.5038 34.3372 -2.3001 0
M  V30 7 C  -42.5492 34.0175 -3.0772 0
M  V30 8 C  -42.7755 32.5795 -3.3029 0
M  V30 9 C  -42.3502 31.4823 -2.5521 0
M  V30 10 C  -42.8631 30.4467 -3.2658 0
M  V30 11 C  -43.5421 30.8758 -4.2986 0
M  V30 12 C  -44.0306 29.7818 -5.0501 0
M  V30 13 C  -43.5506 28.6807 -4.3497 0
M  V30 14 N  -42.8251 29.0858 -3.2115 0
M  V30 15 O  -43.5581 32.2174 -4.4052 0
M  V30 16 O  -43.2775 34.8539 -3.6103 0
M  V30 17 C  -38.7939 38.4661 -2.4937 0
M  V30 18 C  -38.7621 38.8543 -3.9261 0
M  V30 19 C  -37.6326 39.1706 -4.7427 0
M  V30 20 C  -38.0810 39.5493 -5.9767 0
M  V30 21 N  -39.4559 39.4835 -5.9329 0
M  V30 22 C  -39.8808 39.0850 -4.6829 0
M  V30 23 O  -38.0782 39.0851 -1.7049 0
M  V30 24 H  -40.8942 35.5605 0.3107 0
M  V30 25 H  -39.5839 34.8788 -0.6554 0
M  V30 26 H  -40.1210 37.7815 -0.0924 0
M  V30 27 H  -38.5789 36.9375 -0.2383 0
M  V30 28 H  -39.6879 35.8537 -3.4385 0
M  V30 29 H  -41.0228 36.9927 -3.5786 0
M  V30 30 H  -42.1021 36.2402 -1.6318 0
M  V30 31 H  -40.9435 33.5854 -1.9298 0
M  V30 32 H  -41.7493 31.4592 -1.6555 0
M  V30 33 H  -44.6094 29.7776 -5.9622 0
M  V30 34 H  -43.6586 27.6283 -4.5605 0
M  V30 35 H  -42.3664 28.5021 -2.5192 0
M  V30 36 H  -36.5962 39.1326 -4.4445 0
M  V30 37 H  -37.5537 39.8740 -6.8626 0
M  V30 38 H  -40.0765 39.7246 -6.6938 0
M  V30 39 H  -40.9354 39.0095 -4.4574 0
M  V30 END ATOM
M  V30 BEGIN BOND
M  V30 1 1 1 2
M  V30 2 1 1 5
M  V30 3 1 1 24
M  V30 4 1 1 25
M  V30 5 1 2 3
M  V30 6 1 2 26
M  V30 7 1 2 27
M  V30 8 1 3 4
M  V30 9 1 3 17
M  V30 10 1 4 5
M  V30 11 1 4 28
M  V30 12 1 4 29
M  V30 13 1 5 6
M  V30 14 1 5 30
M  V30 15 1 6 7
M  V30 16 1 6 31
M  V30 17 1 7 8
M  V30 18 2 7 16
M  V30 19 2 8 9
M  V30 20 1 8 15
M  V30 21 1 9 10
M  V30 22 1 9 32
M  V30 23 2 10 11
M  V30 24 1 10 14
M  V30 25 1 11 12
M  V30 26 1 11 15
M  V30 27 2 12 13
M  V30 28 1 12 33
M  V30 29 1 13 14
M  V30 30 1 13 34
M  V30 31 1 14 35
M  V30 32 1 17 18
M  V30 33 2 17 23
M  V30 34 1 18 19
M  V30 35 2 18 22
M  V30 36 2 19 20
M  V30 37 1 19 36
M  V30 38 1 20 21
M  V30 39 1 20 37
M  V30 40 1 21 22
M  V30 41 1 21 38
M  V30 42 1 22 39
M  V30 END BOND
M  V30 END CTAB
M  END
> <s_m_entry_id>
423

> <i_f3d_flags>
0

> <r_lp_tautomer_probability>
1

> <r_epik_Ionization_Penalty>
  0.0000

> <r_epik_State_Penalty>
  0.0000

> <i_epik_Tot_Q>
0

> <r_i_docking_score>
-5.63327429140237

> <r_i_glide_gscore>
-5.63327429140237

> <r_i_glide_emodel>
-47.6739278804805

> <s_m_subgroup_title>
nsp13-core1_lib_top-500_pv

> <s_m_subgroupid>
nsp13-core1_lib_top-500_pv

> <b_m_subgroup_collapsed>
0

$$$$
Core_1_EN300-94211_EN300-94211
                    3D
 Schrodinger Suite 2023-1.
  0  0  0     0  0            999 V3000
M  V30 BEGIN CTAB
M  V30 COUNTS 36 39 0 0 0
M  V30 BEGIN ATOM
M  V30 1 C  -40.3451 35.9143 -0.9206 0
M  V30 2 C  -39.6289 37.2632 -0.9712 0
M  V30 3 N  -39.4771 37.6018 -2.3880 0
M  V30 4 C  -40.1807 36.6082 -3.2099 0
M  V30 5 C  -41.1041 35.8552 -2.2381 0 CFG=1
M  V30 6 N  -41.4073 34.4758 -2.6286 0
M  V30 7 C  -42.5545 34.0837 -3.2089 0
M  V30 8 C  -42.7525 32.6332 -3.3950 0
M  V30 9 C  -42.2730 31.5575 -2.6444 0
M  V30 10 C  -42.8120 30.4956 -3.3050 0
M  V30 11 C  -43.5455 30.8904 -4.3126 0
M  V30 12 C  -44.0694 29.7703 -5.0016 0
M  V30 13 C  -43.5511 28.6865 -4.2981 0
M  V30 14 N  -42.7746 29.1345 -3.2106 0
M  V30 15 O  -43.5884 32.2296 -4.4441 0
M  V30 16 O  -43.4096 34.8718 -3.6103 0
M  V30 17 C  -38.7517 38.6807 -2.7843 0
M  V30 18 C  -38.5521 38.9152 -4.2452 0
M  V30 19 C  -39.5554 39.0850 -5.2369 0
M  V30 20 N  -39.0179 39.2988 -6.4105 0
M  V30 21 O  -37.6385 39.2939 -6.1724 0
M  V30 22 N  -37.3792 39.0840 -4.8111 0
M  V30 23 O  -38.2061 39.4241 -1.9681 0
M  V30 24 H  -40.9947 35.8137 -0.0510 0
M  V30 25 H  -39.6013 35.1179 -0.8732 0
M  V30 26 H  -40.2303 38.0332 -0.4867 0
M  V30 27 H  -38.6688 37.2168 -0.4552 0
M  V30 28 H  -39.4449 35.9425 -3.6647 0
M  V30 29 H  -40.7668 37.0560 -4.0094 0
M  V30 30 H  -42.0245 36.4308 -2.1204 0
M  V30 31 H  -40.7462 33.7625 -2.3600 0
M  V30 32 H  -41.6297 31.5601 -1.7761 0
M  V30 33 H  -44.7007 29.7434 -5.8782 0
M  V30 34 H  -43.6693 27.6251 -4.4694 0
M  V30 35 H  -42.3041 28.5693 -2.5128 0
M  V30 36 H  -40.6293 39.0735 -5.1230 0
M  V30 END ATOM
M  V30 BEGIN BOND
M  V30 1 1 1 2
M  V30 2 1 1 5
M  V30 3 1 1 24
M  V30 4 1 1 25
M  V30 5 1 2 3
M  V30 6 1 2 26
M  V30 7 1 2 27
M  V30 8 1 3 4
M  V30 9 1 3 17
M  V30 10 1 4 5
M  V30 11 1 4 28
M  V30 12 1 4 29
M  V30 13 1 5 6
M  V30 14 1 5 30
M  V30 15 1 6 7
M  V30 16 1 6 31
M  V30 17 1 7 8
M  V30 18 2 7 16
M  V30 19 2 8 9
M  V30 20 1 8 15
M  V30 21 1 9 10
M  V30 22 1 9 32
M  V30 23 2 10 11
M  V30 24 1 10 14
M  V30 25 1 11 12
M  V30 26 1 11 15
M  V30 27 2 12 13
M  V30 28 1 12 33
M  V30 29 1 13 14
M  V30 30 1 13 34
M  V30 31 1 14 35
M  V30 32 1 17 18
M  V30 33 2 17 23
M  V30 34 1 18 19
M  V30 35 2 18 22
M  V30 36 2 19 20
M  V30 37 1 19 36
M  V30 38 1 20 21
M  V30 39 1 21 22
M  V30 END BOND
M  V30 END CTAB
M  END
> <s_m_entry_id>
427

> <i_f3d_flags>
0

> <r_lp_tautomer_probability>
1

> <r_epik_Ionization_Penalty>
  0.0000

> <r_epik_State_Penalty>
  0.0000

> <i_epik_Tot_Q>
0

> <r_i_docking_score>
-5.63146900475974

> <r_i_glide_gscore>
-5.63146900475974

> <r_i_glide_emodel>
-51.0654659442075

> <s_m_subgroup_title>
nsp13-core1_lib_top-500_pv

> <s_m_subgroupid>
nsp13-core1_lib_top-500_pv

> <b_m_subgroup_collapsed>
0

$$$$
Core_1_EN300-85760_EN300-85760
                    3D
 Schrodinger Suite 2023-1.
  0  0  0     0  0            999 V3000
M  V30 BEGIN CTAB
M  V30 COUNTS 38 40 0 0 0
M  V30 BEGIN ATOM
M  V30 1 C  -41.6092 33.4681 1.2264 0
M  V30 2 C  -40.6208 34.5627 0.8248 0
M  V30 3 N  -40.9039 34.8763 -0.5747 0
M  V30 4 C  -42.0996 34.1787 -1.0295 0
M  V30 5 C  -42.7587 33.5833 0.2264 0 CFG=1
M  V30 6 N  -43.3749 32.2839 -0.0104 0
M  V30 7 C  -44.2527 31.9975 -0.9853 0
M  V30 8 C  -44.6100 30.5231 -1.1766 0
M  V30 9 C  -44.2077 30.1122 -2.5633 0
M  V30 10 N  -44.8644 30.4189 -3.6803 0
M  V30 11 C  -44.1632 29.7879 -4.7078 0
M  V30 12 C  -43.1033 29.0930 -4.1747 0
M  V30 13 N  -43.1536 29.3230 -2.8103 0
M  V30 14 O  -44.7461 32.8542 -1.7204 0
M  V30 15 C  -40.1454 35.7037 -1.3206 0
M  V30 16 C  -40.5827 35.9888 -2.7737 0 CFG=1
M  V30 17 C  -39.6062 36.7936 -3.6291 0
M  V30 18 C  -39.3265 35.4707 -4.3252 0
M  V30 19 O  -40.3977 34.8083 -3.6019 0
M  V30 20 O  -39.1331 36.2363 -0.8686 0
M  V30 21 H  -41.9432 33.5602 2.2610 0
M  V30 22 H  -41.1201 32.4980 1.1316 0
M  V30 23 H  -40.7781 35.4593 1.4258 0
M  V30 24 H  -39.5882 34.2393 0.9646 0
M  V30 25 H  -41.7902 33.3976 -1.7252 0
M  V30 26 H  -42.7945 34.8391 -1.5491 0
M  V30 27 H  -43.5049 34.2785 0.6149 0
M  V30 28 H  -43.1507 31.5502 0.6642 0
M  V30 29 H  -45.6845 30.3875 -1.0503 0
M  V30 30 H  -44.1060 29.8947 -0.4390 0
M  V30 31 H  -44.4802 29.8697 -5.7373 0
M  V30 32 H  -42.3515 28.4693 -4.6361 0
M  V30 33 H  -42.5472 28.9061 -2.1129 0
M  V30 34 H  -41.6002 36.3815 -2.8372 0
M  V30 35 H  -40.0925 37.5297 -4.2678 0
M  V30 36 H  -38.7496 37.2192 -3.1129 0
M  V30 37 H  -39.4971 35.4959 -5.4021 0
M  V30 38 H  -38.3526 35.0375 -4.0846 0
M  V30 END ATOM
M  V30 BEGIN BOND
M  V30 1 1 1 2
M  V30 2 1 1 5
M  V30 3 1 1 21
M  V30 4 1 1 22
M  V30 5 1 2 3
M  V30 6 1 2 23
M  V30 7 1 2 24
M  V30 8 1 3 4
M  V30 9 1 3 15
M  V30 10 1 4 5
M  V30 11 1 4 25
M  V30 12 1 4 26
M  V30 13 1 5 6
M  V30 14 1 5 27
M  V30 15 1 6 7
M  V30 16 1 6 28
M  V30 17 1 7 8
M  V30 18 2 7 14
M  V30 19 1 8 9
M  V30 20 1 8 29
M  V30 21 1 8 30
M  V30 22 2 9 10
M  V30 23 1 9 13
M  V30 24 1 10 11
M  V30 25 2 11 12
M  V30 26 1 11 31
M  V30 27 1 12 13
M  V30 28 1 12 32
M  V30 29 1 13 33
M  V30 30 1 15 16
M  V30 31 2 15 20
M  V30 32 1 16 17
M  V30 33 1 16 19
M  V30 34 1 16 34
M  V30 35 1 17 18
M  V30 36 1 17 35
M  V30 37 1 17 36
M  V30 38 1 18 19
M  V30 39 1 18 37
M  V30 40 1 18 38
M  V30 END BOND
M  V30 END CTAB
M  END
> <s_m_entry_id>
431

> <i_f3d_flags>
0

> <r_lp_tautomer_probability>
0.499999999999999

> <r_epik_Ionization_Penalty>
  0.0880

> <r_epik_State_Penalty>
  0.0880

> <i_epik_Tot_Q>
0

> <r_i_docking_score>
-5.62926000078506

> <r_i_glide_gscore>
-5.71726000078506

> <r_i_glide_emodel>
-47.6412969999877

> <s_m_subgroup_title>
nsp13-core1_lib_top-500_pv

> <s_m_subgroupid>
nsp13-core1_lib_top-500_pv

> <b_m_subgroup_collapsed>
0

$$$$
Core_1_EN300-6492119_EN300-6492119
                    3D
 Schrodinger Suite 2023-1.
  0  0  0     0  0            999 V3000
M  V30 BEGIN CTAB
M  V30 COUNTS 34 35 0 0 0
M  V30 BEGIN ATOM
M  V30 1 C  -39.4902 36.1744 -3.9436 0
M  V30 2 C  -40.1968 35.3860 -3.1111 0
M  V30 3 C  -39.9974 35.4832 -1.6590 0
M  V30 4 N  -40.8263 34.7596 -0.8590 0
M  V30 5 C  -40.6364 34.6906 0.5899 0
M  V30 6 C  -41.6204 33.6441 1.1185 0
M  V30 7 C  -42.7369 33.6065 0.0788 0 CFG=1
M  V30 8 C  -42.0267 34.0079 -1.2259 0
M  V30 9 N  -43.3507 32.2839 -0.0106 0
M  V30 10 C  -44.2118 31.9037 -0.9685 0
M  V30 11 C  -44.4839 30.4025 -1.1140 0
M  V30 12 C  -44.1471 29.9858 -2.5211 0
M  V30 13 N  -44.8146 30.3513 -3.6159 0
M  V30 14 C  -44.1671 29.7155 -4.6740 0
M  V30 15 C  -43.1372 28.9495 -4.1848 0
M  V30 16 N  -43.1514 29.1366 -2.8122 0
M  V30 17 O  -44.7506 32.7050 -1.7348 0
M  V30 18 O  -39.0997 36.1634 -1.1581 0
M  V30 19 F  -41.0572 34.5172 -3.6696 0
M  V30 20 H  -38.7677 36.8955 -3.5842 0
M  V30 21 H  -39.6251 36.1090 -5.0134 0
M  V30 22 H  -39.6082 34.4332 0.8527 0
M  V30 23 H  -40.8565 35.6693 1.0182 0
M  V30 24 H  -41.1196 32.6763 1.1713 0
M  V30 25 H  -41.9849 33.8775 2.1197 0
M  V30 26 H  -43.4898 34.3504 0.3351 0
M  V30 27 H  -42.6972 34.5948 -1.8581 0
M  V30 28 H  -41.7164 33.1214 -1.7825 0
M  V30 29 H  -43.1018 31.6022 0.7055 0
M  V30 30 H  -43.8958 29.8245 -0.3998 0
M  V30 31 H  -45.5362 30.1972 -0.9154 0
M  V30 32 H  -44.4996 29.8498 -5.6934 0
M  V30 33 H  -42.4227 28.3048 -4.6778 0
M  V30 34 H  -42.5587 28.6584 -2.1390 0
M  V30 END ATOM
M  V30 BEGIN BOND
M  V30 1 2 1 2
M  V30 2 1 1 20
M  V30 3 1 1 21
M  V30 4 1 2 3
M  V30 5 1 2 19
M  V30 6 1 3 4
M  V30 7 2 3 18
M  V30 8 1 4 5
M  V30 9 1 4 8
M  V30 10 1 5 6
M  V30 11 1 5 22
M  V30 12 1 5 23
M  V30 13 1 6 7
M  V30 14 1 6 24
M  V30 15 1 6 25
M  V30 16 1 7 8
M  V30 17 1 7 9
M  V30 18 1 7 26
M  V30 19 1 8 27
M  V30 20 1 8 28
M  V30 21 1 9 10
M  V30 22 1 9 29
M  V30 23 1 10 11
M  V30 24 2 10 17
M  V30 25 1 11 12
M  V30 26 1 11 30
M  V30 27 1 11 31
M  V30 28 2 12 13
M  V30 29 1 12 16
M  V30 30 1 13 14
M  V30 31 2 14 15
M  V30 32 1 14 32
M  V30 33 1 15 16
M  V30 34 1 15 33
M  V30 35 1 16 34
M  V30 END BOND
M  V30 END CTAB
M  END
> <s_m_entry_id>
440

> <i_f3d_flags>
0

> <r_lp_tautomer_probability>
0.499999999999999

> <r_epik_Ionization_Penalty>
  0.0851

> <r_epik_State_Penalty>
  0.0851

> <i_epik_Tot_Q>
0

> <r_i_docking_score>
-5.62306169798917

> <r_i_glide_gscore>
-5.70816169798917

> <r_i_glide_emodel>
-45.2851696250966

> <s_m_subgroup_title>
nsp13-core1_lib_top-500_pv

> <s_m_subgroupid>
nsp13-core1_lib_top-500_pv

> <b_m_subgroup_collapsed>
0

$$$$
Core_1_EN300-207363_EN300-207363
                    3D
 Schrodinger Suite 2023-1.
  0  0  0     0  0            999 V3000
M  V30 BEGIN CTAB
M  V30 COUNTS 38 40 0 0 0
M  V30 BEGIN ATOM
M  V30 1 C  -40.6708 37.2307 -2.0313 0
M  V30 2 C  -41.3533 36.0418 -1.3627 0
M  V30 3 N  -41.2681 34.9350 -2.3127 0
M  V30 4 C  -40.3190 35.2476 -3.3823 0
M  V30 5 C  -39.6990 36.6138 -3.0349 0 CFG=1
M  V30 6 N  -39.5513 37.4447 -4.2246 0
M  V30 7 C  -38.8962 38.6153 -4.2999 0
M  V30 8 C  -39.0101 39.3283 -5.5878 0
M  V30 9 C  -38.2101 40.3492 -6.0100 0
M  V30 10 C  -38.7795 40.6642 -7.2783 0
M  V30 11 N  -39.8208 39.9136 -7.6100 0
M  V30 12 N  -39.9513 39.0838 -6.5571 0
M  V30 13 O  -38.3514 41.5952 -8.1711 0
M  V30 14 O  -38.2309 39.0836 -3.3765 0
M  V30 15 C  -42.0305 33.8246 -2.1936 0
M  V30 16 C  -41.9150 32.6816 -3.2090 0
M  V30 17 O  -43.2078 32.4505 -3.7577 0
M  V30 18 C  -43.4901 31.1664 -4.1462 0
M  V30 19 C  -42.6268 30.0524 -4.3527 0
M  V30 20 C  -43.4808 29.0720 -4.7680 0
M  V30 21 O  -44.7565 29.5375 -4.8110 0
M  V30 22 N  -44.7514 30.8792 -4.4118 0
M  V30 23 O  -42.8417 33.6937 -1.2782 0
M  V30 24 H  -41.4260 37.8228 -2.5514 0
M  V30 25 H  -40.1745 37.8875 -1.3162 0
M  V30 26 H  -42.3829 36.2830 -1.0933 0
M  V30 27 H  -40.8253 35.7611 -0.4501 0
M  V30 28 H  -39.5451 34.4838 -3.4674 0
M  V30 29 H  -40.8560 35.2867 -4.3312 0
M  V30 30 H  -38.7363 36.4552 -2.5502 0
M  V30 31 H  -40.0964 37.1572 -5.0283 0
M  V30 32 H  -37.3662 40.7909 -5.5007 0
M  V30 33 H  -37.4257 41.7553 -8.0504 0
M  V30 34 H  -40.7045 38.4016 -6.4861 0
M  V30 35 H  -41.5513 31.8116 -2.6606 0
M  V30 36 H  -41.2067 32.8870 -4.0100 0
M  V30 37 H  -41.5574 29.9737 -4.2281 0
M  V30 38 H  -43.3406 28.0409 -5.0582 0
M  V30 END ATOM
M  V30 BEGIN BOND
M  V30 1 1 1 2
M  V30 2 1 1 5
M  V30 3 1 1 24
M  V30 4 1 1 25
M  V30 5 1 2 3
M  V30 6 1 2 26
M  V30 7 1 2 27
M  V30 8 1 3 4
M  V30 9 1 3 15
M  V30 10 1 4 5
M  V30 11 1 4 28
M  V30 12 1 4 29
M  V30 13 1 5 6
M  V30 14 1 5 30
M  V30 15 1 6 7
M  V30 16 1 6 31
M  V30 17 2 7 14
M  V30 18 1 7 8
M  V30 19 2 8 9
M  V30 20 1 8 12
M  V30 21 1 9 32
M  V30 22 1 9 10
M  V30 23 2 10 11
M  V30 24 1 10 13
M  V30 25 1 11 12
M  V30 26 1 12 34
M  V30 27 1 13 33
M  V30 28 1 15 16
M  V30 29 2 15 23
M  V30 30 1 16 17
M  V30 31 1 16 35
M  V30 32 1 16 36
M  V30 33 1 17 18
M  V30 34 1 18 19
M  V30 35 2 18 22
M  V30 36 2 19 20
M  V30 37 1 19 37
M  V30 38 1 20 21
M  V30 39 1 20 38
M  V30 40 1 21 22
M  V30 END BOND
M  V30 END CTAB
M  END
> <s_m_entry_id>
454

> <i_f3d_flags>
0

> <r_lp_tautomer_probability>
0.966084542645577

> <r_epik_Ionization_Penalty>
  0.2456

> <r_epik_State_Penalty>
  0.3538

> <i_epik_Tot_Q>
0

> <r_i_docking_score>
-5.61843469438312

> <r_i_glide_gscore>
-5.97223469438311

> <r_i_glide_emodel>
-55.1863500789398

> <s_m_subgroup_title>
nsp13-core1_lib_top-500_pv

> <s_m_subgroupid>
nsp13-core1_lib_top-500_pv

> <b_m_subgroup_collapsed>
0

$$$$
Core_1_EN300-66511_EN300-66511
                    3D
 Schrodinger Suite 2023-1.
  0  0  0     0  0            999 V3000
M  V30 BEGIN CTAB
M  V30 COUNTS 40 43 0 0 0
M  V30 BEGIN ATOM
M  V30 1 C  -40.2732 35.7531 -0.7179 0
M  V30 2 C  -39.5080 37.0645 -0.8897 0
M  V30 3 N  -39.6220 37.4356 -2.2988 0
M  V30 4 C  -40.5303 36.5155 -2.9898 0
M  V30 5 C  -41.2524 35.7289 -1.8853 0 CFG=1
M  V30 6 N  -41.5902 34.3635 -2.2772 0
M  V30 7 C  -42.6196 34.0273 -3.0676 0
M  V30 8 C  -42.8137 32.5861 -3.3082 0
M  V30 9 C  -42.3512 31.4892 -2.5779 0
M  V30 10 C  -42.8535 30.4518 -3.2979 0
M  V30 11 C  -43.5503 30.8772 -4.3196 0
M  V30 12 C  -44.0464 29.7819 -5.0627 0
M  V30 13 C  -43.5506 28.6790 -4.3747 0
M  V30 14 N  -42.8105 29.0912 -3.2463 0
M  V30 15 O  -43.5988 32.2194 -4.4080 0
M  V30 16 O  -43.3552 34.8536 -3.6056 0
M  V30 17 C  -39.0916 38.5904 -2.7754 0
M  V30 18 C  -39.1616 38.7983 -4.2163 0
M  V30 19 C  -39.5599 40.0837 -4.8559 0
M  V30 20 C  -39.3162 39.7710 -6.3466 0
M  V30 21 O  -38.8064 38.4335 -6.4102 0
M  V30 22 C  -38.7517 37.9347 -5.1426 0
M  V30 23 O  -38.5596 39.4072 -2.0252 0
M  V30 24 H  -40.7742 35.6833 0.2484 0
M  V30 25 H  -39.5705 34.9219 -0.7909 0
M  V30 26 H  -39.9597 37.8440 -0.2730 0
M  V30 27 H  -38.4645 36.9607 -0.5871 0
M  V30 28 H  -39.9471 35.8497 -3.6287 0
M  V30 29 H  -41.2526 37.0457 -3.6108 0
M  V30 30 H  -42.1564 36.2662 -1.5936 0
M  V30 31 H  -41.0299 33.6204 -1.8876 0
M  V30 32 H  -41.7458 31.4678 -1.6861 0
M  V30 33 H  -44.6424 29.7801 -5.9624 0
M  V30 34 H  -43.6610 27.6257 -4.5851 0
M  V30 35 H  -42.3508 28.5106 -2.5516 0
M  V30 36 H  -40.6055 40.3172 -4.6458 0
M  V30 37 H  -38.9306 40.9048 -4.5028 0
M  V30 38 H  -40.2422 39.8336 -6.9205 0
M  V30 39 H  -38.5983 40.4660 -6.7891 0
M  V30 40 H  -38.3515 36.9376 -5.0425 0
M  V30 END ATOM
M  V30 BEGIN BOND
M  V30 1 1 1 2
M  V30 2 1 1 5
M  V30 3 1 1 24
M  V30 4 1 1 25
M  V30 5 1 2 3
M  V30 6 1 2 26
M  V30 7 1 2 27
M  V30 8 1 3 4
M  V30 9 1 3 17
M  V30 10 1 4 5
M  V30 11 1 4 28
M  V30 12 1 4 29
M  V30 13 1 5 6
M  V30 14 1 5 30
M  V30 15 1 6 7
M  V30 16 1 6 31
M  V30 17 1 7 8
M  V30 18 2 7 16
M  V30 19 2 8 9
M  V30 20 1 8 15
M  V30 21 1 9 10
M  V30 22 1 9 32
M  V30 23 2 10 11
M  V30 24 1 10 14
M  V30 25 1 11 12
M  V30 26 1 11 15
M  V30 27 2 12 13
M  V30 28 1 12 33
M  V30 29 1 13 14
M  V30 30 1 13 34
M  V30 31 1 14 35
M  V30 32 1 17 18
M  V30 33 2 17 23
M  V30 34 1 18 19
M  V30 35 2 18 22
M  V30 36 1 19 20
M  V30 37 1 19 36
M  V30 38 1 19 37
M  V30 39 1 20 21
M  V30 40 1 20 38
M  V30 41 1 20 39
M  V30 42 1 21 22
M  V30 43 1 22 40
M  V30 END BOND
M  V30 END CTAB
M  END
> <s_m_entry_id>
457

> <i_f3d_flags>
0

> <r_lp_tautomer_probability>
1

> <r_epik_Ionization_Penalty>
  0.0000

> <r_epik_State_Penalty>
  0.0000

> <i_epik_Tot_Q>
0

> <r_i_docking_score>
-5.61778125395502

> <r_i_glide_gscore>
-5.61778125395502

> <r_i_glide_emodel>
-49.1209366878648

> <s_m_subgroup_title>
nsp13-core1_lib_top-500_pv

> <s_m_subgroupid>
nsp13-core1_lib_top-500_pv

> <b_m_subgroup_collapsed>
0

$$$$
Core_1_EN300-19900_EN300-19900
                    3D
 Schrodinger Suite 2023-1.
  0  0  0     0  0            999 V3000
M  V30 BEGIN CTAB
M  V30 COUNTS 39 42 0 0 0
M  V30 BEGIN ATOM
M  V30 1 C  -40.3261 35.7056 -0.6816 0
M  V30 2 C  -39.5993 37.0437 -0.8128 0
M  V30 3 N  -39.7799 37.4741 -2.1983 0
M  V30 4 C  -40.6993 36.5761 -2.9016 0
M  V30 5 C  -41.3505 35.7099 -1.8121 0 CFG=1
M  V30 6 N  -41.6613 34.3541 -2.2495 0
M  V30 7 C  -42.6712 34.0178 -3.0623 0
M  V30 8 C  -42.8488 32.5764 -3.3172 0
M  V30 9 C  -42.3719 31.4794 -2.5970 0
M  V30 10 C  -42.8657 30.4435 -3.3250 0
M  V30 11 C  -43.5685 30.8682 -4.3425 0
M  V30 12 C  -44.0588 29.7712 -5.0941 0
M  V30 13 C  -43.5506 28.6700 -4.4108 0
M  V30 14 N  -42.8162 29.0836 -3.2775 0
M  V30 15 O  -43.6306 32.2099 -4.4185 0
M  V30 16 O  -43.4033 34.8392 -3.6086 0
M  V30 17 C  -39.1606 38.5635 -2.7030 0
M  V30 18 C  -39.4636 38.9469 -4.1184 0
M  V30 19 C  -38.4994 38.7373 -5.1299 0
M  V30 20 N  -38.7091 39.1086 -6.4114 0
M  V30 21 C  -39.8840 39.7226 -6.6712 0
M  V30 22 C  -40.8405 39.9607 -5.6606 0
M  V30 23 N  -40.6328 39.5795 -4.3795 0
M  V30 24 O  -38.3513 39.2293 -2.0567 0
M  V30 25 H  -40.7820 35.5681 0.3007 0
M  V30 26 H  -39.6043 34.8999 -0.8292 0
M  V30 27 H  -40.0471 37.7880 -0.1520 0
M  V30 28 H  -38.5446 36.9481 -0.5502 0
M  V30 29 H  -40.1211 35.9668 -3.5972 0
M  V30 30 H  -41.4575 37.1105 -3.4750 0
M  V30 31 H  -42.2602 36.2005 -1.4596 0
M  V30 32 H  -41.1054 33.6077 -1.8572 0
M  V30 33 H  -41.7662 31.4534 -1.7028 0
M  V30 34 H  -44.6566 29.7704 -5.9952 0
M  V30 35 H  -43.6523 27.6160 -4.6297 0
M  V30 36 H  -42.3514 28.5017 -2.5867 0
M  V30 37 H  -37.5476 38.2834 -4.9043 0
M  V30 38 H  -40.0634 40.0278 -7.6933 0
M  V30 39 H  -41.7750 40.4505 -5.8811 0
M  V30 END ATOM
M  V30 BEGIN BOND
M  V30 1 1 1 2
M  V30 2 1 1 5
M  V30 3 1 1 25
M  V30 4 1 1 26
M  V30 5 1 2 3
M  V30 6 1 2 27
M  V30 7 1 2 28
M  V30 8 1 3 4
M  V30 9 1 3 17
M  V30 10 1 4 5
M  V30 11 1 4 29
M  V30 12 1 4 30
M  V30 13 1 5 6
M  V30 14 1 5 31
M  V30 15 1 6 7
M  V30 16 1 6 32
M  V30 17 1 7 8
M  V30 18 2 7 16
M  V30 19 2 8 9
M  V30 20 1 8 15
M  V30 21 1 9 10
M  V30 22 1 9 33
M  V30 23 2 10 11
M  V30 24 1 10 14
M  V30 25 1 11 12
M  V30 26 1 11 15
M  V30 27 2 12 13
M  V30 28 1 12 34
M  V30 29 1 13 14
M  V30 30 1 13 35
M  V30 31 1 14 36
M  V30 32 1 17 18
M  V30 33 2 17 24
M  V30 34 2 18 19
M  V30 35 1 18 23
M  V30 36 1 19 20
M  V30 37 1 19 37
M  V30 38 2 20 21
M  V30 39 1 21 22
M  V30 40 1 21 38
M  V30 41 2 22 23
M  V30 42 1 22 39
M  V30 END BOND
M  V30 END CTAB
M  END
> <s_m_entry_id>
460

> <i_f3d_flags>
0

> <r_lp_tautomer_probability>
1

> <r_epik_Ionization_Penalty>
  0.0000

> <r_epik_State_Penalty>
  0.0000

> <i_epik_Tot_Q>
0

> <r_i_docking_score>
-5.61632596200936

> <r_i_glide_gscore>
-5.61632596200936

> <r_i_glide_emodel>
-50.0474600244322

> <s_m_subgroup_title>
nsp13-core1_lib_top-500_pv

> <s_m_subgroupid>
nsp13-core1_lib_top-500_pv

> <b_m_subgroup_collapsed>
0

$$$$
Core_1_EN300-19169_EN300-19169
                    3D
 Schrodinger Suite 2023-1.
  0  0  0     0  0            999 V3000
M  V30 BEGIN CTAB
M  V30 COUNTS 43 46 0 0 0
M  V30 BEGIN ATOM
M  V30 1 C  -41.2696 37.1487 -0.4338 0
M  V30 2 C  -40.5625 38.4849 -0.6445 0
M  V30 3 N  -40.2142 38.5421 -2.0643 0
M  V30 4 C  -40.8804 37.4604 -2.7959 0
M  V30 5 C  -41.8469 36.8048 -1.8022 0 CFG=1
M  V30 6 N  -41.9465 35.3644 -1.9874 0
M  V30 7 C  -42.8160 34.7425 -2.7960 0
M  V30 8 C  -42.8161 33.2423 -2.7169 0
M  V30 9 C  -42.4026 32.5741 -1.5397 0
M  V30 10 C  -42.4181 31.1709 -1.4754 0
M  V30 11 C  -42.8653 30.4378 -2.5849 0
M  V30 12 C  -43.3149 31.0707 -3.7793 0
M  V30 13 C  -43.7186 30.0443 -4.7016 0
M  V30 14 C  -43.4777 28.8454 -4.0854 0
M  V30 15 N  -42.9906 29.0838 -2.8109 0
M  V30 16 C  -43.2821 32.4831 -3.8175 0
M  V30 17 O  -43.5515 35.3284 -3.5898 0
M  V30 18 C  -39.2927 39.4064 -2.5515 0
M  V30 19 C  -39.0453 39.4263 -4.0324 0
M  V30 20 C  -37.7421 39.2524 -4.5370 0
M  V30 21 C  -37.5514 39.2735 -5.9296 0
M  V30 22 N  -38.5517 39.4828 -6.8102 0
M  V30 23 C  -39.7917 39.6920 -6.3238 0
M  V30 24 C  -40.0889 39.6800 -4.9494 0
M  V30 25 O  -38.6419 40.1621 -1.8236 0
M  V30 26 H  -42.0296 37.1931 0.3465 0
M  V30 27 H  -40.5339 36.4006 -0.1344 0
M  V30 28 H  -41.2369 39.3085 -0.4118 0
M  V30 29 H  -39.6895 38.5728 0.0043 0
M  V30 30 H  -40.1258 36.7539 -3.1445 0
M  V30 31 H  -41.4373 37.8123 -3.6613 0
M  V30 32 H  -42.8304 37.2758 -1.8914 0
M  V30 33 H  -41.3477 34.7879 -1.4161 0
M  V30 34 H  -42.0802 33.1197 -0.6645 0
M  V30 35 H  -42.1090 30.6638 -0.5713 0
M  V30 36 H  -44.1152 30.1966 -5.6947 0
M  V30 37 H  -43.6244 27.8383 -4.4488 0
M  V30 38 H  -42.7483 28.3548 -2.1435 0
M  V30 39 H  -43.6208 32.9834 -4.7124 0
M  V30 40 H  -36.9034 39.0915 -3.8744 0
M  V30 41 H  -36.5734 39.0991 -6.3505 0
M  V30 42 H  -40.5712 39.8708 -7.0498 0
M  V30 43 H  -41.1003 39.8561 -4.6175 0
M  V30 END ATOM
M  V30 BEGIN BOND
M  V30 1 1 1 2
M  V30 2 1 1 5
M  V30 3 1 1 26
M  V30 4 1 1 27
M  V30 5 1 2 3
M  V30 6 1 2 28
M  V30 7 1 2 29
M  V30 8 1 3 4
M  V30 9 1 3 18
M  V30 10 1 4 5
M  V30 11 1 4 30
M  V30 12 1 4 31
M  V30 13 1 5 6
M  V30 14 1 5 32
M  V30 15 1 6 7
M  V30 16 1 6 33
M  V30 17 1 7 8
M  V30 18 2 7 17
M  V30 19 2 8 9
M  V30 20 1 8 16
M  V30 21 1 9 10
M  V30 22 1 9 34
M  V30 23 2 10 11
M  V30 24 1 10 35
M  V30 25 1 11 12
M  V30 26 1 11 15
M  V30 27 1 12 13
M  V30 28 2 12 16
M  V30 29 2 13 14
M  V30 30 1 13 36
M  V30 31 1 14 15
M  V30 32 1 14 37
M  V30 33 1 15 38
M  V30 34 1 16 39
M  V30 35 1 18 19
M  V30 36 2 18 25
M  V30 37 2 19 20
M  V30 38 1 19 24
M  V30 39 1 20 21
M  V30 40 1 20 40
M  V30 41 2 21 22
M  V30 42 1 21 41
M  V30 43 1 22 23
M  V30 44 2 23 24
M  V30 45 1 23 42
M  V30 46 1 24 43
M  V30 END BOND
M  V30 END CTAB
M  END
> <s_m_entry_id>
463

> <i_f3d_flags>
0

> <r_lp_tautomer_probability>
1

> <r_epik_Ionization_Penalty>
  0.0001

> <r_epik_State_Penalty>
  0.0000

> <i_epik_Tot_Q>
0

> <r_i_docking_score>
-5.61558708926349

> <r_i_glide_gscore>
-5.61558708926349

> <r_i_glide_emodel>
-49.4017370821634

> <s_m_subgroup_title>
nsp13-core1_lib_top-500_pv

> <s_m_subgroupid>
nsp13-core1_lib_top-500_pv

> <b_m_subgroup_collapsed>
0

$$$$
Core_1_EN300-144117_EN300-144117
                    3D
 Schrodinger Suite 2023-1.
  0  0  0     0  0            999 V3000
M  V30 BEGIN CTAB
M  V30 COUNTS 42 44 0 0 0
M  V30 BEGIN ATOM
M  V30 1 C  -41.9120 29.1355 -2.8466 0
M  V30 2 N  -42.9578 29.6287 -3.7142 0
M  V30 3 C  -43.7780 28.8543 -4.5208 0
M  V30 4 C  -44.6126 29.7201 -5.1818 0
M  V30 5 N  -44.3081 31.0247 -4.8057 0
M  V30 6 C  -43.3114 30.9094 -3.9258 0
M  V30 7 C  -42.5673 32.0527 -3.2800 0
M  V30 8 C  -43.5108 33.1834 -2.8398 0
M  V30 9 N  -43.0312 34.4461 -2.8316 0
M  V30 10 C  -43.8572 35.6019 -2.4926 0
M  V30 11 C  -42.9613 36.8230 -2.6753 0
M  V30 12 C  -41.5504 36.2856 -2.4819 0 CFG=1
M  V30 13 C  -41.6286 34.8423 -2.9915 0
M  V30 14 N  -40.5803 37.0957 -3.2102 0
M  V30 15 C  -39.5532 37.7447 -2.6415 0
M  V30 16 C  -38.8460 38.7470 -3.5049 0
M  V30 17 C  -38.3879 39.9574 -2.9318 0
M  V30 18 N  -37.7304 40.8897 -3.6537 0
M  V30 19 C  -37.4962 40.5887 -4.9479 0
M  V30 20 C  -37.9094 39.3664 -5.5214 0
M  V30 21 N  -38.6088 38.4526 -4.8092 0
M  V30 22 O  -37.5651 39.0825 -6.8077 0
M  V30 23 O  -39.2391 37.6137 -1.4586 0
M  V30 24 O  -44.6676 32.9229 -2.5004 0
M  V30 25 H  -42.0420 29.5202 -1.8349 0
M  V30 26 H  -40.9459 29.4469 -3.2388 0
M  V30 27 H  -41.9360 28.0506 -2.8197 0
M  V30 28 H  -43.7002 27.7771 -4.5549 0
M  V30 29 H  -45.3960 29.5055 -5.8946 0
M  V30 30 H  -42.0332 31.7178 -2.3923 0
M  V30 31 H  -41.8234 32.4050 -3.9932 0
M  V30 32 H  -44.7492 35.6638 -3.1164 0
M  V30 33 H  -44.1770 35.5185 -1.4530 0
M  V30 34 H  -43.0858 37.2072 -3.6889 0
M  V30 35 H  -43.2018 37.6319 -1.9859 0
M  V30 36 H  -41.3455 36.2557 -1.4078 0
M  V30 37 H  -40.9555 34.1981 -2.4220 0
M  V30 38 H  -41.3483 34.7767 -4.0429 0
M  V30 39 H  -40.7697 37.2770 -4.1915 0
M  V30 40 H  -38.5550 40.1846 -1.8883 0
M  V30 41 H  -36.9529 41.3224 -5.5257 0
M  V30 42 H  -36.9528 39.7163 -7.1749 0
M  V30 END ATOM
M  V30 BEGIN BOND
M  V30 1 1 1 2
M  V30 2 1 1 25
M  V30 3 1 1 26
M  V30 4 1 1 27
M  V30 5 1 2 3
M  V30 6 1 2 6
M  V30 7 2 3 4
M  V30 8 1 3 28
M  V30 9 1 4 5
M  V30 10 1 4 29
M  V30 11 2 5 6
M  V30 12 1 6 7
M  V30 13 1 7 8
M  V30 14 1 7 30
M  V30 15 1 7 31
M  V30 16 1 8 9
M  V30 17 2 8 24
M  V30 18 1 9 10
M  V30 19 1 9 13
M  V30 20 1 10 11
M  V30 21 1 10 32
M  V30 22 1 10 33
M  V30 23 1 11 12
M  V30 24 1 11 34
M  V30 25 1 11 35
M  V30 26 1 12 13
M  V30 27 1 12 14
M  V30 28 1 12 36
M  V30 29 1 13 37
M  V30 30 1 13 38
M  V30 31 1 14 15
M  V30 32 1 14 39
M  V30 33 2 15 23
M  V30 34 1 15 16
M  V30 35 2 16 17
M  V30 36 1 16 21
M  V30 37 1 17 18
M  V30 38 1 17 40
M  V30 39 2 18 19
M  V30 40 1 19 20
M  V30 41 1 19 41
M  V30 42 1 20 22
M  V30 43 2 20 21
M  V30 44 1 22 42
M  V30 END BOND
M  V30 END CTAB
M  END
> <s_m_entry_id>
466

> <i_f3d_flags>
0

> <r_lp_tautomer_probability>
1

> <r_epik_Ionization_Penalty>
  2.5490

> <r_epik_State_Penalty>
  0.0000

> <i_epik_Tot_Q>
0

> <r_i_docking_score>
-5.61396880622054

> <r_i_glide_gscore>
-5.61396880622054

> <r_i_glide_emodel>
-49.677016328292

> <s_m_subgroup_title>
nsp13-core1_lib_top-500_pv

> <s_m_subgroupid>
nsp13-core1_lib_top-500_pv

> <b_m_subgroup_collapsed>
0

$$$$
Core_1_EN300-12921_EN300-12921
                    3D
 Schrodinger Suite 2023-1.
  0  0  0     0  0            999 V3000
M  V30 BEGIN CTAB
M  V30 COUNTS 42 44 0 0 0
M  V30 BEGIN ATOM
M  V30 1 C  -38.8270 40.8002 -4.5394 0
M  V30 2 C  -38.1208 40.0565 -3.4012 0
M  V30 3 N  -38.9062 38.8479 -3.1518 0
M  V30 4 C  -39.9231 38.6900 -4.1923 0
M  V30 5 C  -39.5957 39.7121 -5.2788 0 CFG=1
M  V30 6 N  -40.8167 40.1966 -5.9108 0
M  V30 7 C  -40.9345 40.5242 -7.2063 0
M  V30 8 C  -42.3631 40.9207 -7.6653 0
M  V30 9 N  -43.1328 41.5266 -6.7558 0
M  V30 10 O  -42.7513 40.6847 -8.8099 0
M  V30 11 O  -40.0026 40.5029 -8.0096 0
M  V30 12 C  -38.7654 38.0917 -2.0355 0
M  V30 13 C  -39.5927 36.8400 -1.9141 0
M  V30 14 C  -39.5786 35.8511 -2.9242 0
M  V30 15 C  -40.3527 34.6847 -2.7965 0
M  V30 16 C  -41.1023 34.4450 -1.6245 0
M  V30 17 C  -41.8162 33.1720 -1.4144 0
M  V30 18 C  -42.6658 32.5143 -2.2332 0
M  V30 19 C  -43.2375 32.9617 -3.5004 0
M  V30 20 N  -44.1208 32.1053 -4.0583 0 CHG=-1
M  V30 21 C  -44.3512 30.9988 -3.3819 0
M  V30 22 O  -45.1510 30.0941 -3.6102 0
M  V30 23 S  -43.3586 30.9361 -1.9028 0
M  V30 24 O  -42.9588 34.0435 -4.0079 0
M  V30 25 C  -41.0869 35.4123 -0.5988 0
M  V30 26 C  -40.3432 36.6015 -0.7419 0
M  V30 27 O  -37.9992 38.3967 -1.1217 0
M  V30 28 H  -38.1323 41.3358 -5.1874 0
M  V30 29 H  -39.5196 41.5303 -4.1175 0
M  V30 30 H  -37.1137 39.7624 -3.7027 0
M  V30 31 H  -38.0348 40.6846 -2.5129 0
M  V30 32 H  -40.9031 38.8714 -3.7471 0
M  V30 33 H  -39.9471 37.7036 -4.6464 0
M  V30 34 H  -38.9320 39.2395 -6.0076 0
M  V30 35 H  -41.6603 40.1580 -5.3583 0
M  V30 36 H  -42.7655 41.7539 -5.8450 0
M  V30 37 H  -44.0747 41.7870 -7.0058 0
M  V30 38 H  -38.9628 35.9712 -3.8035 0
M  V30 39 H  -40.3242 33.9425 -3.5810 0
M  V30 40 H  -41.5434 32.6601 -0.5023 0
M  V30 41 H  -41.6399 35.2381 0.3129 0
M  V30 42 H  -40.3405 37.3266 0.0592 0
M  V30 END ATOM
M  V30 BEGIN BOND
M  V30 1 1 1 2
M  V30 2 1 1 5
M  V30 3 1 1 28
M  V30 4 1 1 29
M  V30 5 1 2 3
M  V30 6 1 2 30
M  V30 7 1 2 31
M  V30 8 1 3 4
M  V30 9 1 3 12
M  V30 10 1 4 5
M  V30 11 1 4 32
M  V30 12 1 4 33
M  V30 13 1 5 6
M  V30 14 1 5 34
M  V30 15 1 6 7
M  V30 16 1 6 35
M  V30 17 1 7 8
M  V30 18 2 7 11
M  V30 19 1 8 9
M  V30 20 2 8 10
M  V30 21 1 9 36
M  V30 22 1 9 37
M  V30 23 1 12 13
M  V30 24 2 12 27
M  V30 25 2 13 14
M  V30 26 1 13 26
M  V30 27 1 14 15
M  V30 28 1 14 38
M  V30 29 2 15 16
M  V30 30 1 15 39
M  V30 31 1 16 17
M  V30 32 1 16 25
M  V30 33 2 17 18 CFG=2
M  V30 34 1 17 40
M  V30 35 1 18 19
M  V30 36 1 18 23
M  V30 37 1 19 20
M  V30 38 2 19 24
M  V30 39 1 20 21
M  V30 40 2 21 22
M  V30 41 1 21 23
M  V30 42 2 25 26
M  V30 43 1 25 41
M  V30 44 1 26 42
M  V30 END BOND
M  V30 END CTAB
M  END
> <s_m_entry_id>
469

> <i_f3d_flags>
0

> <r_epik_Ionization_Penalty>
  0.0630

> <r_epik_State_Penalty>
  0.0630

> <i_epik_Tot_Q>
-1

> <r_i_docking_score>
-5.61219529758487

> <r_i_glide_gscore>
-5.67519529758487

> <r_i_glide_emodel>
-59.6306028707374

> <s_m_subgroup_title>
nsp13-core1_lib_top-500_pv

> <s_m_subgroupid>
nsp13-core1_lib_top-500_pv

> <b_m_subgroup_collapsed>
0

$$$$
Core_1_EN300-7540418_EN300-7540418
                    3D
 Schrodinger Suite 2023-1.
  0  0  0     0  0            999 V3000
M  V30 BEGIN CTAB
M  V30 COUNTS 54 58 0 0 0
M  V30 BEGIN ATOM
M  V30 1 C  -41.5185 33.6277 0.5510 0
M  V30 2 C  -40.7441 34.7981 -0.0646 0
M  V30 3 N  -41.1741 34.8622 -1.4579 0
M  V30 4 C  -42.3292 34.0055 -1.6878 0
M  V30 5 C  -42.7659 33.4806 -0.3169 0 CFG=1
M  V30 6 N  -43.2104 32.0978 -0.4103 0
M  V30 7 C  -44.2737 31.6873 -1.1129 0
M  V30 8 C  -44.4206 30.1834 -1.3259 0
M  V30 9 C  -44.0876 29.8837 -2.7609 0
M  V30 10 N  -44.7907 30.2909 -3.8184 0
M  V30 11 C  -44.1590 29.7168 -4.9213 0
M  V30 12 C  -43.0860 28.9704 -4.4986 0
M  V30 13 N  -43.0748 29.0840 -3.1187 0
M  V30 14 O  -45.0865 32.4634 -1.6142 0
M  V30 15 C  -40.5973 35.5570 -2.4569 0
M  V30 16 C  -39.4622 36.5489 -2.1420 0
M  V30 17 C  -39.4467 37.8554 -2.9845 0 CFG=1
M  V30 18 C  -39.0199 37.6783 -4.4793 0
M  V30 19 N  -39.3025 38.8830 -5.2156 0
M  V30 20 C  -40.2548 39.8044 -4.8526 0
M  V30 21 C  -40.2709 40.8011 -5.8246 0
M  V30 22 C  -41.0240 41.9811 -5.9694 0
M  V30 23 C  -40.7431 42.7869 -7.0943 0
M  V30 24 C  -39.7419 42.4022 -8.0220 0
M  V30 25 C  -39.0167 41.1993 -7.8585 0
M  V30 26 C  -39.2981 40.4031 -6.7366 0
M  V30 27 N  -38.7010 39.2302 -6.4095 0
M  V30 28 N  -40.9873 39.6756 -3.7221 0
M  V30 29 C  -40.7193 38.7370 -2.7936 0
M  V30 30 O  -41.4319 38.6045 -1.7995 0
M  V30 31 O  -40.9820 35.4242 -3.6170 0
M  V30 32 H  -41.7517 33.7903 1.6031 0
M  V30 33 H  -40.9089 32.7243 0.4952 0
M  V30 34 H  -41.0111 35.7330 0.4303 0
M  V30 35 H  -39.6658 34.6548 0.0273 0
M  V30 36 H  -42.0244 33.1933 -2.3534 0
M  V30 37 H  -43.1388 34.5524 -2.1747 0
M  V30 38 H  -43.5576 34.1134 0.0870 0
M  V30 39 H  -42.6892 31.4128 0.1230 0
M  V30 40 H  -45.4487 29.8845 -1.1212 0
M  V30 41 H  -43.7677 29.6173 -0.6586 0
M  V30 42 H  -44.5213 29.8840 -5.9237 0
M  V30 43 H  -42.3648 28.3801 -5.0433 0
M  V30 44 H  -42.4392 28.6153 -2.4833 0
M  V30 45 H  -39.4998 36.8313 -1.0885 0
M  V30 46 H  -38.5213 36.0173 -2.2693 0
M  V30 47 H  -38.6616 38.4689 -2.5396 0
M  V30 48 H  -37.9526 37.4843 -4.5549 0
M  V30 49 H  -39.5466 36.8642 -4.9726 0
M  V30 50 H  -41.7758 42.2651 -5.2450 0
M  V30 51 H  -41.2898 43.7068 -7.2460 0
M  V30 52 H  -39.5369 43.0350 -8.8723 0
M  V30 53 H  -38.2610 40.9052 -8.5750 0
M  V30 54 H  -41.7675 40.3021 -3.5767 0
M  V30 END ATOM
M  V30 BEGIN BOND
M  V30 1 1 1 2
M  V30 2 1 1 5
M  V30 3 1 1 32
M  V30 4 1 1 33
M  V30 5 1 2 3
M  V30 6 1 2 34
M  V30 7 1 2 35
M  V30 8 1 3 4
M  V30 9 1 3 15
M  V30 10 1 4 5
M  V30 11 1 4 36
M  V30 12 1 4 37
M  V30 13 1 5 6
M  V30 14 1 5 38
M  V30 15 1 6 7
M  V30 16 1 6 39
M  V30 17 1 7 8
M  V30 18 2 7 14
M  V30 19 1 8 9
M  V30 20 1 8 40
M  V30 21 1 8 41
M  V30 22 2 9 10
M  V30 23 1 9 13
M  V30 24 1 10 11
M  V30 25 2 11 12
M  V30 26 1 11 42
M  V30 27 1 12 13
M  V30 28 1 12 43
M  V30 29 1 13 44
M  V30 30 1 15 16
M  V30 31 2 15 31
M  V30 32 1 16 17
M  V30 33 1 16 45
M  V30 34 1 16 46
M  V30 35 1 17 18
M  V30 36 1 17 29
M  V30 37 1 17 47
M  V30 38 1 18 19
M  V30 39 1 18 48
M  V30 40 1 18 49
M  V30 41 1 19 20
M  V30 42 1 19 27
M  V30 43 2 20 21
M  V30 44 1 20 28
M  V30 45 1 21 22
M  V30 46 1 21 26
M  V30 47 2 22 23
M  V30 48 1 22 50
M  V30 49 1 23 24
M  V30 50 1 23 51
M  V30 51 2 24 25
M  V30 52 1 24 52
M  V30 53 1 25 26
M  V30 54 1 25 53
M  V30 55 2 26 27
M  V30 56 1 28 29
M  V30 57 1 28 54
M  V30 58 2 29 30
M  V30 END BOND
M  V30 END CTAB
M  END
> <s_m_entry_id>
470

> <i_f3d_flags>
0

> <r_lp_tautomer_probability>
0.499999999999999

> <r_epik_Ionization_Penalty>
  0.0869

> <r_epik_State_Penalty>
  0.0869

> <i_epik_Tot_Q>
0

> <r_i_docking_score>
-5.61184995214496

> <r_i_glide_gscore>
-5.69874995214496

> <r_i_glide_emodel>
-57.3812603561025

> <s_m_subgroup_title>
nsp13-core1_lib_top-500_pv

> <s_m_subgroupid>
nsp13-core1_lib_top-500_pv

> <b_m_subgroup_collapsed>
0

$$$$
Core_1_EN300-28706497_EN300-28706497
                    3D
 Schrodinger Suite 2023-1.
  0  0  0     0  0            999 V3000
M  V30 BEGIN CTAB
M  V30 COUNTS 49 52 0 0 0
M  V30 BEGIN ATOM
M  V30 1 C  -39.2052 41.5760 -2.0038 0
M  V30 2 C  -39.8192 41.5461 -3.4168 0
M  V30 3 C  -41.1045 42.3989 -3.4709 0
M  V30 4 C  -39.9392 40.0971 -3.9902 0 CFG=2
M  V30 5 C  -40.2589 40.0974 -5.4773 0
M  V30 6 C  -41.4233 40.2842 -6.1067 0
M  V30 7 C  -41.1412 40.1561 -7.5049 0
M  V30 8 N  -39.8267 39.8842 -7.6104 0 CHG=-1
M  V30 9 O  -39.2221 39.8354 -6.3284 0
M  V30 10 O  -41.9665 40.2836 -8.4090 0
M  V30 11 C  -40.7819 39.1050 -3.1511 0
M  V30 12 N  -40.4664 37.7900 -3.1735 0
M  V30 13 C  -39.4727 37.1585 -4.0394 0
M  V30 14 C  -39.7071 35.6530 -3.9336 0
M  V30 15 C  -40.4091 35.4632 -2.5905 0 CFG=1
M  V30 16 C  -41.1329 36.8005 -2.3286 0
M  V30 17 N  -41.2215 34.2406 -2.5462 0
M  V30 18 C  -42.4054 33.9886 -3.1310 0
M  V30 19 C  -42.7436 32.5673 -3.2861 0
M  V30 20 C  -42.3466 31.4674 -2.5271 0
M  V30 21 C  -42.8737 30.4428 -3.2459 0
M  V30 22 C  -43.5530 30.8795 -4.2744 0
M  V30 23 C  -44.0415 29.7922 -5.0356 0
M  V30 24 C  -43.5511 28.6832 -4.3531 0
M  V30 25 N  -42.8280 29.0836 -3.2118 0
M  V30 26 O  -43.5555 32.2206 -4.3740 0
M  V30 27 O  -43.1429 34.8448 -3.6104 0
M  V30 28 O  -41.7028 39.5243 -2.4490 0
M  V30 29 H  -39.8704 41.1325 -1.2623 0
M  V30 30 H  -38.2610 41.0325 -1.9724 0
M  V30 31 H  -39.0030 42.5985 -1.6868 0
M  V30 32 H  -39.0984 42.0573 -4.0584 0
M  V30 33 H  -41.9016 41.9938 -2.8494 0
M  V30 34 H  -40.9100 43.4116 -3.1170 0
M  V30 35 H  -41.4857 42.4916 -4.4862 0
M  V30 36 H  -38.9175 39.7178 -3.9387 0
M  V30 37 H  -42.3852 40.4805 -5.6600 0
M  V30 38 H  -39.5503 37.4826 -5.0779 0
M  V30 39 H  -38.4784 37.4224 -3.6794 0
M  V30 40 H  -40.3523 35.3448 -4.7560 0
M  V30 41 H  -38.7825 35.0810 -4.0107 0
M  V30 42 H  -39.6343 35.3601 -1.8300 0
M  V30 43 H  -41.0654 37.0763 -1.2752 0
M  V30 44 H  -42.1880 36.7951 -2.5892 0
M  V30 45 H  -40.7485 33.4314 -2.1729 0
M  V30 46 H  -41.7229 31.4313 -1.6449 0
M  V30 47 H  -44.6180 29.8013 -5.9483 0
M  V30 48 H  -43.6491 27.6317 -4.5786 0
M  V30 49 H  -42.3638 28.4974 -2.5246 0
M  V30 END ATOM
M  V30 BEGIN BOND
M  V30 1 1 1 2
M  V30 2 1 1 29
M  V30 3 1 1 30
M  V30 4 1 1 31
M  V30 5 1 2 3
M  V30 6 1 2 4
M  V30 7 1 2 32
M  V30 8 1 3 33
M  V30 9 1 3 34
M  V30 10 1 3 35
M  V30 11 1 4 11
M  V30 12 1 4 36
M  V30 13 1 4 5
M  V30 14 1 5 9
M  V30 15 2 5 6
M  V30 16 1 6 37
M  V30 17 1 6 7
M  V30 18 2 7 10
M  V30 19 1 7 8
M  V30 20 1 8 9
M  V30 21 1 11 12
M  V30 22 2 11 28
M  V30 23 1 12 13
M  V30 24 1 12 16
M  V30 25 1 13 14
M  V30 26 1 13 38
M  V30 27 1 13 39
M  V30 28 1 14 15
M  V30 29 1 14 40
M  V30 30 1 14 41
M  V30 31 1 15 16
M  V30 32 1 15 17
M  V30 33 1 15 42
M  V30 34 1 16 43
M  V30 35 1 16 44
M  V30 36 1 17 18
M  V30 37 1 17 45
M  V30 38 1 18 19
M  V30 39 2 18 27
M  V30 40 2 19 20
M  V30 41 1 19 26
M  V30 42 1 20 21
M  V30 43 1 20 46
M  V30 44 2 21 22
M  V30 45 1 21 25
M  V30 46 1 22 23
M  V30 47 1 22 26
M  V30 48 2 23 24
M  V30 49 1 23 47
M  V30 50 1 24 25
M  V30 51 1 24 48
M  V30 52 1 25 49
M  V30 END BOND
M  V30 END CTAB
M  END
> <s_m_entry_id>
477

> <i_f3d_flags>
0

> <r_lp_tautomer_probability>
1

> <r_epik_Ionization_Penalty>
  0.0229

> <r_epik_State_Penalty>
  0.0063

> <i_epik_Tot_Q>
-1

> <r_i_docking_score>
-5.60687176016993

> <r_i_glide_gscore>
-5.61317176016993

> <r_i_glide_emodel>
-54.649743240868

> <s_m_subgroup_title>
nsp13-core1_lib_top-500_pv

> <s_m_subgroupid>
nsp13-core1_lib_top-500_pv

> <b_m_subgroup_collapsed>
0

$$$$
Core_1_EN300-325843_EN300-325843
                    3D
 Schrodinger Suite 2023-1.
  0  0  0     0  0            999 V3000
M  V30 BEGIN CTAB
M  V30 COUNTS 47 51 0 0 0
M  V30 BEGIN ATOM
M  V30 1 C  -42.6740 40.8294 -4.5167 0
M  V30 2 C  -42.2819 40.6626 -6.0047 0
M  V30 3 C  -40.8853 40.1132 -5.9462 0
M  V30 4 C  -39.9919 39.9061 -7.0099 0
M  V30 5 N  -38.7522 39.4039 -6.8103 0
M  V30 6 C  -38.3896 39.0742 -5.5454 0
M  V30 7 C  -39.2386 39.2079 -4.4224 0
M  V30 8 C  -38.7543 38.8193 -3.0592 0
M  V30 9 N  -39.2907 37.7231 -2.4785 0
M  V30 10 C  -38.9248 37.2877 -1.1312 0
M  V30 11 C  -39.6065 35.9353 -0.9159 0
M  V30 12 C  -40.7679 35.9474 -1.9036 0 CFG=1
M  V30 13 C  -40.2344 36.7780 -3.0767 0
M  V30 14 N  -41.1872 34.6039 -2.2883 0
M  V30 15 C  -42.3109 34.3353 -2.9714 0
M  V30 16 C  -42.6154 32.9135 -3.2058 0
M  V30 17 C  -42.1412 31.7773 -2.5475 0
M  V30 18 C  -42.7911 30.7857 -3.2143 0
M  V30 19 C  -43.5799 31.2744 -4.1346 0
M  V30 20 C  -44.2476 30.2255 -4.8100 0
M  V30 21 C  -43.7431 29.0791 -4.2038 0
M  V30 22 N  -42.8394 29.4235 -3.1786 0
M  V30 23 O  -43.5518 32.6162 -4.2038 0
M  V30 24 O  -43.0536 35.2069 -3.4198 0
M  V30 25 O  -37.8826 39.5000 -2.5206 0
M  V30 26 C  -40.5117 39.7704 -4.6534 0
M  V30 27 C  -41.6031 40.1022 -3.6643 0
M  V30 28 H  -42.6563 41.8926 -4.2670 0
M  V30 29 H  -43.6860 40.4722 -4.3108 0
M  V30 30 H  -42.3219 41.6056 -6.5517 0
M  V30 31 H  -42.9310 39.9390 -6.5007 0
M  V30 32 H  -40.2641 40.1581 -8.0248 0
M  V30 33 H  -37.3889 38.6835 -5.4312 0
M  V30 34 H  -39.2927 38.0196 -0.4106 0
M  V30 35 H  -37.8430 37.2112 -1.0094 0
M  V30 36 H  -39.9292 35.7865 0.1150 0
M  V30 37 H  -38.9048 35.1381 -1.1639 0
M  V30 38 H  -41.6064 36.4766 -1.4446 0
M  V30 39 H  -39.6921 36.1536 -3.7896 0
M  V30 40 H  -41.0528 37.2556 -3.6090 0
M  V30 41 H  -40.6210 33.8292 -1.9761 0
M  V30 42 H  -41.4359 31.6990 -1.7319 0
M  V30 43 H  -44.9644 30.2821 -5.6166 0
M  V30 44 H  -43.9511 28.0381 -4.4053 0
M  V30 45 H  -42.3473 28.8000 -2.5488 0
M  V30 46 H  -42.0132 39.1957 -3.2230 0
M  V30 47 H  -41.2281 40.7366 -2.8607 0
M  V30 END ATOM
M  V30 BEGIN BOND
M  V30 1 1 1 2
M  V30 2 1 1 27
M  V30 3 1 1 28
M  V30 4 1 1 29
M  V30 5 1 2 3
M  V30 6 1 2 30
M  V30 7 1 2 31
M  V30 8 2 3 4
M  V30 9 1 3 26
M  V30 10 1 4 5
M  V30 11 1 4 32
M  V30 12 2 5 6
M  V30 13 1 6 7
M  V30 14 1 6 33
M  V30 15 1 7 8
M  V30 16 2 7 26
M  V30 17 1 8 9
M  V30 18 2 8 25
M  V30 19 1 9 10
M  V30 20 1 9 13
M  V30 21 1 10 11
M  V30 22 1 10 34
M  V30 23 1 10 35
M  V30 24 1 11 12
M  V30 25 1 11 36
M  V30 26 1 11 37
M  V30 27 1 12 13
M  V30 28 1 12 14
M  V30 29 1 12 38
M  V30 30 1 13 39
M  V30 31 1 13 40
M  V30 32 1 14 15
M  V30 33 1 14 41
M  V30 34 1 15 16
M  V30 35 2 15 24
M  V30 36 2 16 17
M  V30 37 1 16 23
M  V30 38 1 17 18
M  V30 39 1 17 42
M  V30 40 2 18 19
M  V30 41 1 18 22
M  V30 42 1 19 20
M  V30 43 1 19 23
M  V30 44 2 20 21
M  V30 45 1 20 43
M  V30 46 1 21 22
M  V30 47 1 21 44
M  V30 48 1 22 45
M  V30 49 1 26 27
M  V30 50 1 27 46
M  V30 51 1 27 47
M  V30 END BOND
M  V30 END CTAB
M  END
> <s_m_entry_id>
478

> <i_f3d_flags>
0

> <r_epik_Ionization_Penalty>
  0.0028

> <r_epik_State_Penalty>
  0.0028

> <i_epik_Tot_Q>
0

> <r_i_docking_score>
-5.606683355021

> <r_i_glide_gscore>
-5.609483355021

> <r_i_glide_emodel>
-53.647769031946

> <s_m_subgroup_title>
nsp13-core1_lib_top-500_pv

> <s_m_subgroupid>
nsp13-core1_lib_top-500_pv

> <b_m_subgroup_collapsed>
0

$$$$
Core_1_EN300-6505097_EN300-6505097
                    3D
 Schrodinger Suite 2023-1.
  0  0  0     0  0            999 V3000
M  V30 BEGIN CTAB
M  V30 COUNTS 36 38 0 0 0
M  V30 BEGIN ATOM
M  V30 1 C  -43.0192 33.9360 -0.6638 0
M  V30 2 C  -43.9820 32.7485 -0.6804 0
M  V30 3 N  -43.5127 31.8531 -1.7381 0
M  V30 4 C  -42.1288 32.1729 -2.0902 0
M  V30 5 C  -41.7123 33.3660 -1.2122 0 CFG=1
M  V30 6 N  -40.8580 34.3433 -1.9015 0
M  V30 7 C  -41.1250 35.0075 -3.0388 0
M  V30 8 C  -39.9823 35.8229 -3.6555 0
M  V30 9 S  -39.9514 37.5586 -3.1024 0
M  V30 10 C  -38.9621 38.2806 -4.3751 0
M  V30 11 N  -37.9660 39.1341 -4.1701 0
M  V30 12 C  -37.5747 39.3839 -5.4561 0
M  V30 13 N  -38.2625 38.7530 -6.4061 0
M  V30 14 N  -39.1509 38.0466 -5.6744 0
M  V30 15 O  -42.2143 34.9468 -3.6102 0
M  V30 16 C  -44.3262 30.9502 -2.3375 0
M  V30 17 C  -43.8187 30.1645 -3.5073 0
M  V30 18 N  -42.5843 29.8649 -3.9169 0
M  V30 19 C  -42.7508 29.0699 -5.0383 0
M  V30 20 C  -44.0897 28.9163 -5.2616 0
M  V30 21 O  -44.7763 29.6045 -4.3052 0
M  V30 22 O  -45.5047 30.7967 -2.0100 0
M  V30 23 H  -42.9009 34.3612 0.3321 0
M  V30 24 H  -43.4129 34.7211 -1.3110 0
M  V30 25 H  -43.9440 32.2135 0.2709 0
M  V30 26 H  -45.0087 33.0842 -0.8376 0
M  V30 27 H  -42.0703 32.4005 -3.1550 0
M  V30 28 H  -41.4789 31.3183 -1.9012 0
M  V30 29 H  -41.1520 32.9735 -0.3637 0
M  V30 30 H  -39.9448 34.4882 -1.4943 0
M  V30 31 H  -40.0895 35.7740 -4.7382 0
M  V30 32 H  -39.0216 35.3622 -3.4218 0
M  V30 33 H  -36.7613 40.0509 -5.6977 0
M  V30 34 H  -39.8947 37.4843 -6.0741 0
M  V30 35 H  -41.9116 28.6838 -5.5941 0
M  V30 36 H  -44.6670 28.3948 -6.0129 0
M  V30 END ATOM
M  V30 BEGIN BOND
M  V30 1 1 1 2
M  V30 2 1 1 5
M  V30 3 1 1 23
M  V30 4 1 1 24
M  V30 5 1 2 3
M  V30 6 1 2 25
M  V30 7 1 2 26
M  V30 8 1 3 4
M  V30 9 1 3 16
M  V30 10 1 4 5
M  V30 11 1 4 27
M  V30 12 1 4 28
M  V30 13 1 5 6
M  V30 14 1 5 29
M  V30 15 1 6 7
M  V30 16 1 6 30
M  V30 17 1 7 8
M  V30 18 2 7 15
M  V30 19 1 8 9
M  V30 20 1 8 31
M  V30 21 1 8 32
M  V30 22 1 9 10
M  V30 23 2 10 11
M  V30 24 1 10 14
M  V30 25 1 11 12
M  V30 26 2 12 13
M  V30 27 1 12 33
M  V30 28 1 13 14
M  V30 29 1 14 34
M  V30 30 1 16 17
M  V30 31 2 16 22
M  V30 32 2 17 18
M  V30 33 1 17 21
M  V30 34 1 18 19
M  V30 35 2 19 20
M  V30 36 1 19 35
M  V30 37 1 20 21
M  V30 38 1 20 36
M  V30 END BOND
M  V30 END CTAB
M  END
> <s_m_entry_id>
485

> <i_f3d_flags>
0

> <r_lp_tautomer_probability>
0.5726006379666

> <r_epik_Ionization_Penalty>
  0.0520

> <r_epik_State_Penalty>
  0.3304

> <i_epik_Tot_Q>
0

> <r_i_docking_score>
-5.60456411749981

> <r_i_glide_gscore>
-5.93496411749981

> <r_i_glide_emodel>
-53.6373372082849

> <s_m_subgroup_title>
nsp13-core1_lib_top-500_pv

> <s_m_subgroupid>
nsp13-core1_lib_top-500_pv

> <b_m_subgroup_collapsed>
0

$$$$
Core_1_EN300-154078_EN300-154078
                    3D
 Schrodinger Suite 2023-1.
  0  0  0     0  0            999 V3000
M  V30 BEGIN CTAB
M  V30 COUNTS 46 50 0 0 0
M  V30 BEGIN ATOM
M  V30 1 C  -43.3244 29.0436 -3.9094 0
M  V30 2 C  -44.1584 29.9577 -4.8531 0
M  V30 3 C  -43.7291 31.3070 -4.4103 0
M  V30 4 C  -43.8653 32.6030 -4.7859 0
M  V30 5 O  -43.1950 33.4078 -3.9077 0
M  V30 6 C  -42.6059 32.5892 -2.9741 0
M  V30 7 C  -41.8734 33.1484 -1.8181 0
M  V30 8 N  -41.2598 34.3503 -1.9209 0
M  V30 9 C  -40.6428 34.9909 -0.7602 0
M  V30 10 C  -40.1322 36.3434 -1.2428 0
M  V30 11 C  -39.9359 36.1757 -2.7505 0 CFG=1
M  V30 12 C  -41.0019 35.1334 -3.1330 0
M  V30 13 N  -40.0922 37.4264 -3.4980 0
M  V30 14 C  -39.4148 38.5673 -3.2632 0
M  V30 15 C  -39.7536 39.7885 -4.1365 0 CFG=1
M  V30 16 C  -38.6321 40.8414 -4.2243 0 CFG=2
M  V30 17 C  -38.7934 42.1501 -4.9730 0
M  V30 18 C  -38.2129 40.9376 -5.6603 0 CFG=2
M  V30 19 C  -39.1352 40.0436 -6.3947 0
M  V30 20 N  -39.9520 39.4261 -5.5347 0
M  V30 21 O  -39.1512 39.8854 -7.6103 0
M  V30 22 O  -38.5636 38.6682 -2.3806 0
M  V30 23 O  -41.8488 32.4949 -0.7760 0
M  V30 24 C  -42.9037 31.2931 -3.2940 0
M  V30 25 C  -42.6217 29.9129 -2.8207 0
M  V30 26 H  -43.9514 28.2845 -3.4582 0
M  V30 27 H  -42.5650 28.5223 -4.4948 0
M  V30 28 H  -45.2286 29.8381 -4.6883 0
M  V30 29 H  -43.9514 29.7819 -5.9085 0
M  V30 30 H  -44.3514 33.0840 -5.6109 0
M  V30 31 H  -39.8144 34.3740 -0.4061 0
M  V30 32 H  -41.3515 35.1044 0.0624 0
M  V30 33 H  -39.2208 36.6467 -0.7267 0
M  V30 34 H  -40.8908 37.1020 -1.0404 0
M  V30 35 H  -38.9444 35.7584 -2.9381 0
M  V30 36 H  -41.9317 35.6231 -3.4319 0
M  V30 37 H  -40.6628 34.5081 -3.9615 0
M  V30 38 H  -40.7573 37.4224 -4.2601 0
M  V30 39 H  -40.6652 40.2464 -3.7498 0
M  V30 40 H  -37.8480 40.8062 -3.4711 0
M  V30 41 H  -39.8064 42.4555 -5.2337 0
M  V30 42 H  -38.1068 42.9633 -4.7451 0
M  V30 43 H  -37.1491 40.8763 -5.8757 0
M  V30 44 H  -40.6546 38.7561 -5.8246 0
M  V30 45 H  -41.5507 29.7242 -2.8059 0
M  V30 46 H  -43.0381 29.7535 -1.8246 0
M  V30 END ATOM
M  V30 BEGIN BOND
M  V30 1 1 1 2
M  V30 2 1 1 25
M  V30 3 1 1 26
M  V30 4 1 1 27
M  V30 5 1 2 3
M  V30 6 1 2 28
M  V30 7 1 2 29
M  V30 8 2 3 4
M  V30 9 1 3 24
M  V30 10 1 4 5
M  V30 11 1 4 30
M  V30 12 1 5 6
M  V30 13 1 6 7
M  V30 14 2 6 24
M  V30 15 1 7 8
M  V30 16 2 7 23
M  V30 17 1 8 9
M  V30 18 1 8 12
M  V30 19 1 9 10
M  V30 20 1 9 31
M  V30 21 1 9 32
M  V30 22 1 10 11
M  V30 23 1 10 33
M  V30 24 1 10 34
M  V30 25 1 11 12
M  V30 26 1 11 13
M  V30 27 1 11 35
M  V30 28 1 12 36
M  V30 29 1 12 37
M  V30 30 1 13 14
M  V30 31 1 13 38
M  V30 32 1 14 15
M  V30 33 2 14 22
M  V30 34 1 15 16
M  V30 35 1 15 20
M  V30 36 1 15 39
M  V30 37 1 16 17
M  V30 38 1 16 18
M  V30 39 1 16 40
M  V30 40 1 17 18
M  V30 41 1 17 41
M  V30 42 1 17 42
M  V30 43 1 18 19
M  V30 44 1 18 43
M  V30 45 1 19 20
M  V30 46 2 19 21
M  V30 47 1 20 44
M  V30 48 1 24 25
M  V30 49 1 25 45
M  V30 50 1 25 46
M  V30 END BOND
M  V30 END CTAB
M  END
> <s_m_entry_id>
486

> <i_f3d_flags>
0

> <r_lp_tautomer_probability>
1

> <r_epik_Ionization_Penalty>
  0.0000

> <r_epik_State_Penalty>
  0.0000

> <i_epik_Tot_Q>
0

> <r_i_docking_score>
-5.60396378214086

> <r_i_glide_gscore>
-5.60396378214086

> <r_i_glide_emodel>
-50.165330954214

> <s_m_subgroup_title>
nsp13-core1_lib_top-500_pv

> <s_m_subgroupid>
nsp13-core1_lib_top-500_pv

> <b_m_subgroup_collapsed>
0

$$$$
Core_1_EN300-08779_EN300-08779
                    3D
 Schrodinger Suite 2023-1.
  0  0  0     0  0            999 V3000
M  V30 BEGIN CTAB
M  V30 COUNTS 45 49 0 0 0
M  V30 BEGIN ATOM
M  V30 1 C  -43.0991 39.3851 -3.6755 0
M  V30 2 C  -41.6329 39.5539 -3.9549 0
M  V30 3 C  -41.1175 39.9811 -5.2165 0
M  V30 4 C  -41.6577 40.3110 -6.5672 0
M  V30 5 N  -40.6802 40.6062 -7.4725 0 CHG=-1
M  V30 6 S  -39.2108 40.5970 -6.7840 0
M  V30 7 C  -39.7848 40.1181 -5.2242 0
M  V30 8 S  -39.0096 39.7125 -3.7414 0
M  V30 9 C  -40.5923 39.3325 -3.0592 0
M  V30 10 C  -40.5448 38.8904 -1.6492 0
M  V30 11 N  -41.0284 37.6702 -1.3299 0
M  V30 12 C  -41.0778 37.1820 0.0485 0
M  V30 13 C  -41.5329 35.7240 -0.0290 0
M  V30 14 C  -42.2610 35.6395 -1.3644 0 CFG=1
M  V30 15 C  -41.5047 36.6366 -2.2494 0
M  V30 16 N  -42.2785 34.2841 -1.9016 0
M  V30 17 C  -43.0390 33.9053 -2.9382 0
M  V30 18 C  -43.0633 32.4667 -3.2484 0
M  V30 19 C  -42.5246 31.3914 -2.5393 0
M  V30 20 C  -42.9116 30.3413 -3.3087 0
M  V30 21 C  -43.6050 30.7371 -4.3440 0
M  V30 22 C  -44.0270 29.6216 -5.1056 0
M  V30 23 C  -43.4918 28.5415 -4.4104 0
M  V30 24 N  -42.8023 28.9860 -3.2627 0
M  V30 25 O  -43.7616 32.0715 -4.3965 0
M  V30 26 O  -43.7003 34.6945 -3.6103 0
M  V30 27 O  -40.0595 39.6413 -0.8024 0
M  V30 28 O  -38.6293 41.9347 -6.5987 0
M  V30 29 O  -38.3514 39.4838 -7.2103 0
M  V30 30 O  -42.8678 40.2840 -6.7825 0
M  V30 31 H  -43.5230 38.5864 -4.2860 0
M  V30 32 H  -43.2972 39.1478 -2.6302 0
M  V30 33 H  -43.6477 40.2974 -3.9099 0
M  V30 34 H  -41.7999 37.7782 0.6087 0
M  V30 35 H  -40.1109 37.2694 0.5471 0
M  V30 36 H  -42.1596 35.4329 0.8148 0
M  V30 37 H  -40.6562 35.0736 -0.0336 0
M  V30 38 H  -43.2846 35.9935 -1.2229 0
M  V30 39 H  -40.6378 36.1695 -2.7198 0
M  V30 40 H  -42.1472 37.0078 -3.0440 0
M  V30 41 H  -41.7576 33.5777 -1.4033 0
M  V30 42 H  -41.9623 31.3862 -1.6167 0
M  V30 43 H  -44.6163 29.5936 -6.0103 0
M  V30 44 H  -43.5508 27.4842 -4.6222 0
M  V30 45 H  -42.3513 28.4231 -2.5480 0
M  V30 END ATOM
M  V30 BEGIN BOND
M  V30 1 1 1 2
M  V30 2 1 1 31
M  V30 3 1 1 32
M  V30 4 1 1 33
M  V30 5 1 2 3
M  V30 6 2 2 9
M  V30 7 1 3 4
M  V30 8 2 3 7
M  V30 9 1 4 5
M  V30 10 2 4 30
M  V30 11 1 5 6
M  V30 12 1 6 7
M  V30 13 2 6 28
M  V30 14 2 6 29
M  V30 15 1 7 8
M  V30 16 1 8 9
M  V30 17 1 9 10
M  V30 18 1 10 11
M  V30 19 2 10 27
M  V30 20 1 11 12
M  V30 21 1 11 15
M  V30 22 1 12 13
M  V30 23 1 12 34
M  V30 24 1 12 35
M  V30 25 1 13 14
M  V30 26 1 13 36
M  V30 27 1 13 37
M  V30 28 1 14 15
M  V30 29 1 14 16
M  V30 30 1 14 38
M  V30 31 1 15 39
M  V30 32 1 15 40
M  V30 33 1 16 17
M  V30 34 1 16 41
M  V30 35 1 17 18
M  V30 36 2 17 26
M  V30 37 2 18 19
M  V30 38 1 18 25
M  V30 39 1 19 20
M  V30 40 1 19 42
M  V30 41 2 20 21
M  V30 42 1 20 24
M  V30 43 1 21 22
M  V30 44 1 21 25
M  V30 45 2 22 23
M  V30 46 1 22 43
M  V30 47 1 23 24
M  V30 48 1 23 44
M  V30 49 1 24 45
M  V30 END BOND
M  V30 END CTAB
M  END
> <s_m_entry_id>
487

> <i_f3d_flags>
0

> <r_lp_tautomer_probability>
1

> <r_epik_Ionization_Penalty>
  0.0000

> <r_epik_State_Penalty>
  0.0000

> <i_epik_Tot_Q>
-1

> <r_i_docking_score>
-5.60390717466872

> <r_i_glide_gscore>
-5.60390717466872

> <r_i_glide_emodel>
-60.0144871607122

> <s_m_subgroup_title>
nsp13-core1_lib_top-500_pv

> <s_m_subgroupid>
nsp13-core1_lib_top-500_pv

> <b_m_subgroup_collapsed>
0

$$$$
Core_1_EN300-6482029_EN300-6482029
                    3D
 Schrodinger Suite 2023-1.
  0  0  0     0  0            999 V3000
M  V30 BEGIN CTAB
M  V30 COUNTS 55 59 0 0 0
M  V30 BEGIN ATOM
M  V30 1 C  -41.4869 40.2843 -7.4502 0
M  V30 2 C  -40.1430 40.8447 -6.9410 0 CFG=1
M  V30 3 C  -40.0260 42.3232 -7.2718 0
M  V30 4 C  -38.5855 42.7427 -7.0350 0
M  V30 5 C  -37.9599 42.1994 -5.7576 0
M  V30 6 C  -36.7379 42.6533 -5.2300 0
M  V30 7 C  -36.2148 42.0909 -4.0519 0
M  V30 8 C  -36.9166 41.0771 -3.3751 0
M  V30 9 C  -38.1613 40.5887 -3.8380 0
M  V30 10 C  -38.9097 39.5647 -3.0605 0
M  V30 11 C  -40.2679 39.2370 -3.5555 0
M  V30 12 C  -40.6741 39.8059 -4.7052 0
M  V30 13 N  -39.9004 40.6500 -5.5039 0
M  V30 14 C  -38.6373 41.1676 -5.0444 0
M  V30 15 C  -41.2037 38.3246 -2.8970 0
M  V30 16 N  -40.7909 37.0400 -2.8012 0
M  V30 17 C  -39.6718 36.4339 -3.5293 0
M  V30 18 C  -39.9546 34.9404 -3.5588 0
M  V30 19 C  -40.7749 34.7000 -2.2970 0 CFG=1
M  V30 20 C  -41.5644 36.0062 -2.1050 0
M  V30 21 N  -41.5600 33.4633 -2.3588 0
M  V30 22 C  -42.5544 33.1573 -3.2139 0
M  V30 23 C  -42.8758 31.6985 -3.3302 0
M  V30 24 C  -43.9341 31.2312 -4.2931 0
M  V30 25 C  -43.9515 29.7813 -4.5645 0
M  V30 26 C  -43.1750 28.9781 -3.8202 0
M  V30 27 N  -42.3620 29.4835 -2.8068 0
M  V30 28 N  -42.2086 30.8352 -2.6221 0
M  V30 29 O  -44.7505 31.9867 -4.8103 0
M  V30 30 O  -43.1050 34.0049 -3.9134 0
M  V30 31 O  -42.3057 38.6806 -2.4810 0
M  V30 32 O  -38.4404 39.0535 -2.0398 0
M  V30 33 F  -35.0307 42.5303 -3.5667 0
M  V30 34 H  -41.6052 40.4660 -8.5139 0
M  V30 35 H  -41.5470 39.2076 -7.3023 0
M  V30 36 H  -42.3334 40.7511 -6.9471 0
M  V30 37 H  -39.3561 40.3045 -7.4735 0
M  V30 38 H  -40.3076 42.5266 -8.3064 0
M  V30 39 H  -40.7025 42.8990 -6.6378 0
M  V30 40 H  -37.9693 42.3923 -7.8664 0
M  V30 41 H  -38.5127 43.8312 -7.0399 0
M  V30 42 H  -36.1853 43.4302 -5.7362 0
M  V30 43 H  -36.4859 40.6798 -2.4664 0
M  V30 44 H  -41.6649 39.6074 -5.0818 0
M  V30 45 H  -38.7506 36.6193 -2.9795 0
M  V30 46 H  -39.5538 36.8240 -4.5432 0
M  V30 47 H  -39.0448 34.3429 -3.6098 0
M  V30 48 H  -40.5449 34.7177 -4.4450 0
M  V30 49 H  -40.0852 34.6133 -1.4586 0
M  V30 50 H  -42.5627 35.9635 -2.5399 0
M  V30 51 H  -41.6778 36.2459 -1.0483 0
M  V30 52 H  -41.2043 32.6902 -1.8123 0
M  V30 53 H  -44.5852 29.3948 -5.3483 0
M  V30 54 H  -43.1219 27.9050 -3.9394 0
M  V30 55 H  -41.9284 28.8630 -2.1232 0
M  V30 END ATOM
M  V30 BEGIN BOND
M  V30 1 1 1 2
M  V30 2 1 1 34
M  V30 3 1 1 35
M  V30 4 1 1 36
M  V30 5 1 2 3
M  V30 6 1 2 13
M  V30 7 1 2 37
M  V30 8 1 3 4
M  V30 9 1 3 38
M  V30 10 1 3 39
M  V30 11 1 4 5
M  V30 12 1 4 40
M  V30 13 1 4 41
M  V30 14 1 5 6
M  V30 15 2 5 14
M  V30 16 2 6 7
M  V30 17 1 6 42
M  V30 18 1 7 8
M  V30 19 1 7 33
M  V30 20 2 8 9
M  V30 21 1 8 43
M  V30 22 1 9 10
M  V30 23 1 9 14
M  V30 24 1 10 11
M  V30 25 2 10 32
M  V30 26 2 11 12
M  V30 27 1 11 15
M  V30 28 1 12 13
M  V30 29 1 12 44
M  V30 30 1 13 14
M  V30 31 1 15 16
M  V30 32 2 15 31
M  V30 33 1 16 17
M  V30 34 1 16 20
M  V30 35 1 17 18
M  V30 36 1 17 45
M  V30 37 1 17 46
M  V30 38 1 18 19
M  V30 39 1 18 47
M  V30 40 1 18 48
M  V30 41 1 19 20
M  V30 42 1 19 21
M  V30 43 1 19 49
M  V30 44 1 20 50
M  V30 45 1 20 51
M  V30 46 1 21 22
M  V30 47 1 21 52
M  V30 48 1 22 23
M  V30 49 2 22 30
M  V30 50 1 23 24
M  V30 51 2 23 28
M  V30 52 1 24 25
M  V30 53 2 24 29
M  V30 54 2 25 26
M  V30 55 1 25 53
M  V30 56 1 26 27
M  V30 57 1 26 54
M  V30 58 1 27 28
M  V30 59 1 27 55
M  V30 END BOND
M  V30 END CTAB
M  END
> <s_m_entry_id>
492

> <i_f3d_flags>
0

> <r_lp_tautomer_probability>
0.999746388232414

> <r_epik_Ionization_Penalty>
  0.4847

> <r_epik_State_Penalty>
  0.0702

> <i_epik_Tot_Q>
0

> <r_i_docking_score>
-5.60186814024134

> <r_i_glide_gscore>
-5.67206814024134

> <r_i_glide_emodel>
-56.0587257331064

> <s_m_subgroup_title>
nsp13-core1_lib_top-500_pv

> <s_m_subgroupid>
nsp13-core1_lib_top-500_pv

> <b_m_subgroup_collapsed>
0

$$$$
